
* AD795 SPICE Macro-model
* Description: Amplifier
* Generic Desc: 8/30V, JFET, OP, Low Pwr, Low Noise, 1X
* Developed by: JOM / ADSC
* Revision History: 08/10/2012 - Updated to new header style
* 1.0 (11/1994)
* Copyright 1990, 2012 by Analog Devices.
*
* Refer to http://www.analog.com/Analog_Root/static/techSupport/designTools/spiceModels/license/spice_general.html for License Statement. Use of this model
* indicates your acceptance with the terms and provisions in the License Statement.
*
* BEGIN Notes:
*
* Not Modeled:
*
* Parameters modeled include:
*
* END Notes
*
* Node assignments
*                non-inverting input
*                | inverting input
*                | | positive supply
*                | | |  negative supply
*                | | |  |  output
*                | | |  |  |
.SUBCKT AD795    1 2 99 50 30
*#ASSOC Category="Op-amps" symbol=opamp
*
* INPUT STAGE & POLE AT 40 MHZ
*
R3   5  50    .719
R4   6  50    .719
CIN  1   2    2E-12
C2   5   6    1.383E-9
I1   99  4    100E-3
IOS  1   2    0.1E-12
EOS  65  1    POLY(1)  17 24  50E-6  1
J1   5   2    4   JX
J2   6   7    4   JX
EN   7  65    43  0  1
GN1  0   1    47  0  1E-6
GN2  0   2    61  0  1E-6
GB1  2  50    POLY(3) 4,2 5,2 50,2 0 1E-12 1E-12 1E-12
GB2  7  50    POLY(3) 4,7 6,7 50,7 0 1E-12 1E-12 1E-12
*
EREF 98  0    24  0   1
*
* VOLTAGE NOISE GENERATOR
*
VN1  41  0    DC 2
RS1  41 42    8E3
RS2  42 43    1.2E9
CS1  42 43    398E-11
RS3  43 44    1.2E9
CS2  43 44    398E-11
RS4  44 45    8E3
VN2  0  45    DC 2
*
* CURRENT NOISE GENERATOR
*
VN3  46  0    DC 2
RN5  46 47    41.5
RN6  47 48    41.5
VN4  0  48    DC 2
*
* CURRENT NOISE GENERATOR
*
VN5  60  0    DC 2
RN7  60 61    41.5
RN8  61 62    41.5
VN6  0  62    DC 2
*
* SECOND STAGE & POLE AT 2.213 HZ
*
R5   9  98    719203
C3   9  98    1.00E-7
G1   98  9    5  6  1.39
V2   99  8    3.025
V3   10 50    3.025
D1   9   8    DX
D2   10  9    DX
*
* NEGATIVE ZERO AT 15 MHZ
*
R6   11 12     1E6
R7   12 98     1
E2   11 98     9  24  1E6
VX1  84  0
EX1  83  0     11 12  1
FX1  11 12     VX1  -1
CX1  83 84     10.6E-15
*
* POLE AT 20 MHZ
*
R8   13 98     1E3
C5   13 98     7.96E-12
G2   98 13     12 24  1E-3
*
* POLE AT 20 MHZ
*
R9   14 98     1E3
C6   14 98     7.96E-12
G3   98 14     13 24  1E-3
*
* POLE AT 20 MHZ
*
R10  15 98     1E3
C7   15 98     7.96E-12
G4   98 15     14 24  1E-3
*
* COMMON-MODE GAIN NETWORK WITH ZERO AT 300 HZ
*
R11  16 17     1E6
C8   16 17     5.3E-10
R12  17 98     1
E3   16 98     POLY(2) 1  98  2  98  0  1.585  1.585
*
* POLE AT 20 MHZ
*
R13  18 98     1E3
C9   18 98     7.96E-12
G5   98 18     15 24  1E-3
*
* OUTPUT STAGE
*
R14  24 99     2000E3
R15  24 50     2000E3
FSY  99 50     POLY(2) V7 V8 -98.7E-3 1 1
R16  29 99     360
R17  29 50     360
L1   29 30     1E-8
G8   29 99     99 18  2.78E-3
G9   50 29     18 50  2.78E-3
V4   25 29     2.0
V5   29 26     2.0
D3   18 25     DX
D4   26 18     DX
F1   29  0     V4  1
F2   0  29     V5  1
G6   98 70     29 18 2.78E-3
D5   70 71     DX
D6   72 70     DX
V7   71 98     DC 0
V8   98 72     DC 0
*
* MODELS USED
*
.MODEL JX PJF(BETA=9.67  VTO=-2.000  IS=0.50E-12 RD=0.1
+ RS=0.1 CGD=1E-15 CGS=1E-15)
.MODEL DX   D(IS=1E-15 RS=10 CJO=1E-15)
.ENDS AD795



* AD8031 Spice Macro-model
* Description: Amplifier
* Generic Desc: 2.7V 80 MHz rail-rail op amp
* Developed by: SMR/ADI
* Revision History:
*   1.2 (07/31/2013- updated Characteristics
*   1.1 (08/2012) - Updated to new header style
*   1.0 (08/1996) Initial release
* Copyright 1996, 2012 by Analog Devices, Inc.
*
* Refer to
* http://www.analog.com/Analog_Root/static/techSupport/designTools/
* spiceModels/license/spice_general.html for License Statement.
* Use of this model indicates your acceptance with the terms and
*
* provisions in the License Statement.
***   This Model accurately simulated the following characteristics:
***   Open loop Gain and Phase
***   Slew Rate
***   CMRR & PSRR
***   Voltage and current noise
***   DC characteristics
*
* BEGIN Notes:
*
* Not Modeled:
*    Distortion
*    Noise
*
* Parameters modeled include:
*    open loop gain and phase vs frequency
*    output clamping voltage and current
*    input common mode range
*    CMRR vs freq
*    I bias vs Vcm in
*    Slew rate
*    Output currents are reflected to V supplies
*    Vos is static and will not vary with Vcm in
*    Step response is modeled at unity gain w/1k load
*
* END Notes
*
***************   +IN   -IN   Vcc   Vee   Out
.subckt AD8031    1   2   99   50   61
*#ASSOC Category="Op-amps" symbol=opamp
*
***Differential Stage
Q1   13   12   14   npn
Q2   17   2   16   npn
Rc1   98   13   Rideal   2.000E-01
Rc2   98   17   Rideal   2.000E-01
Re1   14   15   Rideal   1.483E-01
Re2   15   16   Rideal   1.483E-01
Ibias   15   51   1.00E+00
Dcmlim1   18   15   DQUIET
Vcmlim1   18   51   -0.474

***Voltage Noise Generation
HVnoise   12   7   Vvnoise   1
VVnoise   501   0   0
DVnoise   501   0   Dvnoise
RVnoise   501   0   0.0000736

***Current Noise Generation on +IN
FInoise1   12   0   VInoise1   1
VInoise1   502   0   0
DInoise1   502   0   DInoise1
RInoise1   502   0   1840

***Current Noise Generation on -IN
FInoise2   2   0   VInoise2   1
VInoise2   503   0   0
DInoise2   503   0   DInoise2
RInoise2   503   0   1840

***Common Mode Injection
Rcm1   1   601   Rideal   100Meg
Rcm2   2   601   Rideal   100Meg
Gcmr   0   602   601   75   1.00E-06
Rcmr1   602   603   Rideal   1Meg
Rcmr2   603   604   Rideal   1.000E+02
Lcmr   604   0   3.183E-02
Ecmr   10   9   603   0   1.000E+00

***Positive Power Supply Rejection
Epsr1   700   0   98   0   1
Rpsr1   700   701   Rideal   1.00E+02
Rpsr2   701   702   Rideal   5.012E-03
Lpsr1   702   0   7.977E-07
Epsr2   11   10   701   0   1

***Negative Power Supply Rejection
Epsr3   703   0   51   0   1
Rpsr3   703   704   Rideal   1.00E+02
Rpsr4   704   705   Rideal   5.012E-03
Lpsr2   705   0   7.977E-07
Epsr4   12   11   704   0   1

***Input Offset and Bias
Vos   1   7   1.000E-03
Ios   1   2   2.500E-08

***Input Impedance
Cinv   2   0   1.00E-12
Cninv   1   0   1.00E-12

***1st Gain and Slew limiting
Gslew   0   101   17   13   1.0000E+00
Rslew   101   0   Rideal   2.50E+02
Dslew1   101   102   DZENER
Dslew2   0   102   DZENER

***Second Gain and Dominant Pole with Output Voltage Limiting
Gp1   51   201   101   0   1.885E-06
Rp1   201   51   Rideal   2.122E+07
Cp1   201   51   1.50E-12
Vlim1   97   206   -0.05
Dlim1   201   206   dquiet
Vlim2   207   52   -0.05
Dlim2   207   201   dquiet
Esupref1   97   98   51   0   1
Esupref2   52   51   51   0   1

***Second Pole
Gp2   0   202   201   51   1.00E-03
Rp2   202   0   Rideal   1.00E+03
Cp2   202   0   1.59155E-12

***Third Pole
Gp3   0   203   202   0   1.00E-03
Rp3   203   0   Rideal   1.00E+03
Cp3   203   0   1.13682E-12
***Fourth Pole
Gp4   0   204   203   0   1.00E-03
Rp4   204   0   Rideal   1.00E+03
Cp4   204   0   1.59155E-16
***Fifth Pole
Gp5   0   205   204   0   1.00E-03
Rp5   205   0   Rideal   1.00E+03
Cp5   205   0   1.592E-16

***First Zero
Gz1   0   301   205   0   1.00E-03
Rz1   301   302   Rideal   1.00E+03
Lz1   302   0   1.592E-10
***Second Zero
Gz2   0   303   301   0   1.00E-03
Rz2   303   304   Rideal   1.00E+03
Lz2   304   0   1.592E-10
***Third Zero
Gz3   0   305   303   0   1.00E-03
Rz3   305   306   Rideal   1.00E+03
Lz3   306   0   1.59E-10

***Buffer
Gbuf   0   401   305   0   1.00E-04
Rbuf   401   0   Rideal   1.00E+04

***Output with current limiting
Eout   404   0   401   0   1.000E+00
Rout   404   405   RIDEAL   1.000E+00
Lout   405   406   1.00E-19
Cout   406   0   1.00E-22
Voutmon   406   61   0
Dout1   401   407   Dquiet
Vout1   407   406   -6.150E-01
Dout2   408   401   Dquiet
Vout2   406   408   -6.150E-01

***Voltage reference generator
Eref1   98   0   99   0   1
Eref2   51   0   50   0   1
Rref1   98   901   Rideal   100Meg
Rref2   901   51   Rideal   100Meg
Eref3   75   0   901   0   1

***Supply current correction
Iq   99   50   0.00045
Fsup1   99   0   Voutmon   1
*DZsup1   0   802   DZENER2
*Dsup1   99   802   DQUIET
Fsup2   0   50   Voutmon   -1
*DZsup2   804   0   DZENER2
*Dsup2   804   50   DQUIET

***models
.model   Rideal   res   T_ABS=-273
.model   Rnoise   res   T_ABS=27
.model   npn   npn   BF= 1111110.11111111
.model   dquiet   d
.model   dvnoise   d   KF=2250000
.model   dinoise1   d   KF=45
.model   dinoise2   d   KF=45
.model   dzener   d   BV=27.2521385667767
.model   dzener2   d   BV=50

.ends AD8031
*$

*AD8034 Macro-model
*Function:Amplifier
*
*Revision History:
*Rev.2.1 Jun 2015-Initials
*Copyright 2015 by Analog Devices
*
*Refer to http://www.analog.com/Analog_Root/static/techSupport/designTools/spicemodels/license
*for License Statement. Use of this model indicates your acceptance
*of the terms and provisions in the License Staement.
*
*Tested on MultSIm, SiMetrix(NGSpice), PSpice
*
*Not modeled: Distortion, PSRR, Overload Recovery,
*             Shutdown Turn On/Turn Off time
*
*Parameters modeled include:
*   Vos, Ibias, Input CM limits and Typ output voltge swing over full supply range,
*   Open Loop Gain & Phase, Slew Rate, Output current limits, Voltage & Current Noise over temp,
*   Capacitive load drive, Quiescent and dynamic supply currents,
*   Shut Down pin functionality where applicable,
*   Single supply & offset supply functionality.
*
*Node Assignments
*               Non-Inverting Input
*               |   Inverting Input
*               |   |   Positive supply
*               |   |   |   Negative supply
*               |   |   |   |   Output
*               |   |   |   |   |
.Subckt AD8034 100 101 102 103 104
*#ASSOC Category="Op-Amps" symbol=opamp
***Power Supplies***
Rz1    102    1020    Rideal    1e-6
Rz2    103    1030    Rideal    1e-6
Ibias    1020    1030    dc    0.33e-3
DzPS    98    1020    diode
Iquies    1020    98    dc    2.97e-3
S1    98    1030    106    113    Switch
R1    1020    99    Rideal    1e7
R2    99    1030    Rideal    1e7
e1    111    110    1020    110    1
e2    110    112    110    1030    1
e3    110    0    99    0    1
*
*
***Inputs***
S2    1    100    106    113    Switch
S3    9    101    106    113    Switch
VOS    1    2    dc    1e-6
IbiasP    110    2    dc    1.5e-12
IbiasN    110    9    dc    1.5e-12
RinCMP    110    2    Rideal    10000e6
RinCMN    9    110    Rideal    10000e6
CinCMP    110    2    1.15e-12
CinCMN    9    110    1.15e-12
IOS    9    2    0e-12
RinDiff    9    2    Rideal    10000e3
CinDiff    9    2    0.55e-12
*
*
***Non-Inverting Input with Clamp***
g1    3    110    110    2    0.001
RInP    3    110    Rideal    1e3
RX1    40    3    Rideal    0.001
DInP    40    41    diode
DInN    42    40    diode
VinP    111    41    dc    3.26
VinN    42    112    dc    0.46
*
*
***Vnoise***
hVn    6    5    Vmeas1    707.10678
Vmeas1    20    110    DC    0
Vvn    21    110    dc    0.65
Dvn    21    20    DVnoisy
hVn1    6    7    Vmeas2    707.10678
Vmeas2    22    110    dc    0
Vvn1    23    110    dc    0.65
Dvn1    23    22    DVnoisy
*
*
***Inoise***
FnIN    9    110    Vmeas3    0.7071068
Vmeas3    51    110    dc    0
VnIN    50    110    dc    0.65
DnIN    50    51    DINnoisy
FnIN1    110    9    Vmeas4    0.7071068
Vmeas4    53    110    dc    0
VnIN1    52    110    dc    0.65
DnIN1    52    53    DINnoisy
*
FnIP    2    110    Vmeas5    0.7071068
Vmeas5    31    110    dc    0
VnIP    30    110    dc    0.65
DnIP    30    31    DIPnoisy
FnIP1    110    2    Vmeas6    0.7071068
Vmeas6    33    110    dc    0
VnIP1    32    110    dc    0.65
DnIP1    32    33    DIPnoisy
*
*
***CMRR***
RcmrrP    3    10    Rideal    1e12
RcmrrN    10    9    Rideal    1e12
g10    11    110    10    110    -1e-10
Lcmrr    11    12    1e-12
Rcmrr    12    110    Rideal    1e3
e4    5    3    11    110    1
*
*
***Power Down***
VPD    111    80    dc    2
VPD1    81    0    dc    1.5
RPD    111    106    Rideal    0.286e6
ePD    80    113    82    0    1
RDP1    82    0    Rideal    1e3
CPD    82    0    1e-10
S5    81    82    83    113    Switch
CDP1    83    0    1e-12
RPD2    106    83    1e6
*
*
***Feedback Pin***
*RF    105    104    Rideal    0.001
*
*
***VFB Stage***
g200    200    110    7    9    1
R200    200    110    Rideal    250
DzSlewP    201    200    DzSlewP
DzSlewN    201    110    DzSlewN
*
*
***Dominant Pole at 910 Hz***
g210    210    110    200    110    0.9105e-6
R210    210    110    Rideal    174.9e6
C210    210    110    1e-012
*
*
***Output Voltage Clamp-1***
RX2    60    210    Rideal    0.001
DzVoutP    61    60    DzVoutP
DzVoutN    60    62    DzVoutN
DVoutP    61    63    diode
DVoutN    64    62    diode
VoutP    65    63    dc    5.051
VoutN    64    66    dc    5.051
e60    65    110    111    110    1.057
e61    66    110    112    110    1.057
*
*
***Pole at 800MHz***
g220    220    110    210    110    0.001
R220    220    110    Rideal    1000
C220    220    110    0.1989e-12
*
***Pole at 900MHz***
g230    230    110    220    110    0.001
R230    230    110    Rideal    1000
C230    230    110    0.1768e-12
*
***Pole at 1400MHz***
g240    240    110    230    110    0.001
R240    240    110    Rideal    1000
C240    240    110    0.1137e-12
*
***Pole at 900MHz***
g245    245    110    240    110    0.001
R245    245    110    Rideal    1000
C245    245    110    0.1768e-12
*
***Pole at 800MHz***
g250    250    110    245    110    0.001
R250    250    110    Rideal    1000
C250    250    110    0.1989e-12
*
***Pole at 800MHz***
g255    255    110    250    110    0.001
R255    255    110    Rideal    1000
C255    255    110    0.1989e-12
*
***Pole at 800MHz***
g260    260    110    255    110    0.001
R260    260    110    Rideal    1000
C260    260    110    0.1989e-12
*
***Pole at 800MHz***
g265    265    110    260    110    0.001
R265    265    110    Rideal    1000
C265    265    110    0.1989e-12
*
***Pole at 800MHz***
g270    270    110    265    110    0.001
R270    270    110    Rideal    1000
C270    270    110    0.1989e-12
*
***Buffer***
e280    280    110    270    110    1
R280    280    285    Rideal    10
*
***Buffer***
e290    290    110    285    110    1
R290    290    292    Rideal    10
e295    295    110    292    110    1
*
*
***Output Stage***
g300    300    110    295    110    0.001
R300    300    110    Rideal    1000
e301    301    110    300    110    1
Rout    302    303    Rideal     38
Lout    303    310     41e-9
Cout    310    110     4e-12
*
*
***Output Current Limit***
H1    301    304    Vsense1    100
Vsense1    301    302    dc    0
VIoutP    305    304    dc    3.336
VIoutN    304    306    dc    3.336
DIoutP    307    305    diode
DIoutN    306    307    diode
Rx3    307    300    Rideal    0.001
*
*
***Output Clamp-2***
VoutP1    111    73    dc    0.695
VoutN1    74    112    dc    0.695
DVoutP1    75    73    diode
DVoutN1    74    75    diode
RX4    75    310    Rideal    0.001
*
*
***Supply Currents***
FIoVcc    314    110    Vmeas8    1
Vmeas8    310    311    dc    0
R314    110    314    Rideal    1e9
DzOVcc    110    314    diode
DOVcc    102    314    diode
RX5    311    312    Rideal    0.001
FIoVee    315    110    Vmeas9    1
Vmeas9    312    313    dc    0
R315    315    110    Rideal    1e9
DzOVee    315    110    diode
DOVee    315    103    diode
*
*
***Output Switch***
S4    104    313    106    113    Switch
*
*
*** Common Models ***
.model    diode    d(bv=100)
.model    Switch    vswitch(Von=1.505,Voff=1.495,ron=0.001,roff=1e6)
.model    DzVoutP    D(BV=4.3)
.model    DzVoutN    D(BV=4.3)
.model    DzSlewP    D(BV=88.339)
.model    DzSlewN    D(BV=88.339)
.model    DVnoisy    D(IS=4.47e-15 KF=1.03e-15)
.model    DINnoisy    D(IS=1.87e-23 KF=0.00e0)
.model    DIPnoisy    D(IS=1.87e-23 KF=0.00e0)
.model    Rideal    res(T_ABS=-273)
*
.ends AD8034

*AD8038 Macro-model
*Function:Amplifier
*
*Revision History:
*Rev.2.1 Jun 2015-ZZ
*Copyright 2015 by Analog Devices
*
*Refer to http://www.analog.com/Analog_Root/static/techSupport/designTools/spicemodels/license
*for License Statement. Use of this model indicates your acceptance
*of the terms and provisions in the License Staement.
*
*Tested on MultSIm, SiMetrix(NGSpice), PSpice
*
*Not modeled: Distortion, PSRR, Overload Recovery,
*             Shutdown Turn On/Turn Off time
*
*Parameters modeled include:
*   Vos, Ibias, Input CM limits and Typ output voltge swing over full supply range,
*   Open Loop Gain & Phase, Slew Rate, Output current limits, Voltage & Current Noise over temp,
*   Capacitive load drive, Quiescent and dynamic supply currents,
*   Shut Down pin functionality where applicable,
*   Single supply & offset supply functionality.
*
*Node Assignments
*               Non-Inverting Input
*               |   Inverting Input
*               |   |   Positive supply
*               |   |   |   Negative supply
*               |   |   |   |   Output
*               |   |   |   |   |   PD
*               |   |   |   |   |   |
.Subckt AD8038 100 101 102 103 104 106
*#ASSOC Category="Op_Amps" symbol=opamp_6_pd
***Power Supplies***
Rz1    102    1020    Rideal    1e-6
Rz2    103    1030    Rideal    1e-6
Ibias    1020    1030    dc    0.2e-3
DzPS    98    1020    diode
Iquies    1020    98    dc    0.8e-3
S1    98    1030    106    113    Switch
R1    1020    99    Rideal    1e7
R2    99    1030    Rideal    1e7
e1    111    110    1020    110    1
e2    110    112    110    1030    1
e3    110    0    99    0    1
*
*
***Inputs***
S2    1    100    106    113    Switch
S3    9    101    106    113    Switch
VOS    1    2    dc    500e-6
IbiasP    110    2    dc    0.4e-6
IbiasN    110    9    dc    0.4e-6
RinCMP    110    2    Rideal    20e6
RinCMN    9    110    Rideal    20e6
CinCMP    110    2    1e-12
CinCMN    9    110    1e-12
IOS    9    2    0.025e-6
RinDiff    9    2    Rideal    2e3
CinDiff    9    2    0.1e-12
*
*
***Non-Inverting Input with Clamp***
g1    3    110    110    2    0.001
RInP    3    110    Rideal    1e3
RX1    40    3    Rideal    0.001
DInP    40    41    diode
DInN    42    40    diode
VinP    111    41    dc    1.46
VinN    42    112    dc    1.46
*
*
***Vnoise***
hVn    6    5    Vmeas1    707.10678
Vmeas1    20    110    DC    0
Vvn    21    110    dc    0.65
Dvn    21    20    DVnoisy
hVn1    6    7    Vmeas2    707.10678
Vmeas2    22    110    dc    0
Vvn1    23    110    dc    0.65
Dvn1    23    22    DVnoisy
*
*
***Inoise***
FnIN    9    110    Vmeas3    0.7071068
Vmeas3    51    110    dc    0
VnIN    50    110    dc    0.65
DnIN    50    51    DINnoisy
FnIN1    110    9    Vmeas4    0.7071068
Vmeas4    53    110    dc    0
VnIN1    52    110    dc    0.65
DnIN1    52    53    DINnoisy
*
FnIP    2    110    Vmeas5    0.7071068
Vmeas5    31    110    dc    0
VnIP    30    110    dc    0.65
DnIP    30    31    DIPnoisy
FnIP1    110    2    Vmeas6    0.7071068
Vmeas6    33    110    dc    0
VnIP1    32    110    dc    0.65
DnIP1    32    33    DIPnoisy
*
*
***CMRR***
RcmrrP    3    10    Rideal    1e12
RcmrrN    10    9    Rideal    1e12
g10    11    110    10    110    -1e-10
Lcmrr    11    12    1e-12
Rcmrr    12    110    Rideal    1e3
e4    5    3    11    110    1
*
*
***Power Down***
VPD    111    80    dc    4.5
VPD1    81    0    dc    2
RPD    111    106    Rideal    1e6
ePD    80    113    82    0    1
RDP1    82    0    Rideal    1e3
CPD    82    0    1e-10
S5    81    82    83    113    Switch
CDP1    83    0    1e-12
RPD2    106    83    1e6
*
*
***Feedback Pin***
*RF    105    104    Rideal    0.001
*
*
***VFB Stage***
g200    200    110    7    9    1
R200    200    110    Rideal    250
DzSlewP    201    200    DzSlewP
DzSlewN    201    110    DzSlewN
*
*
***Dominant Pole at 48 Hz***
g210    210    110    200    110    3.8149e-6
R210    210    110    Rideal    3.32e6
C210    210    110    1e-012
*
*
***Output Voltage Clamp-1***
RX2    60    210    Rideal    0.001
DzVoutP    61    60    DzVoutP
DzVoutN    60    62    DzVoutN
DVoutP    61    63    diode
DVoutN    64    62    diode
VoutP    65    63    dc    5.839
VoutN    64    66    dc    5.839
e60    65    110    111    110    1.05
e61    66    110    112    110    1.05
*
*
***Pole at 800MHz***
g220    220    110    210    110    0.001
R220    220    110    Rideal    1000
C220    220    110    0.1989e-12
*
***Pole at 900MHz***
g230    230    110    220    110    0.001
R230    230    110    Rideal    1000
C230    230    110    0.1768e-12
*
***Pole at 1200MHz***
g240    240    110    230    110    0.001
R240    240    110    Rideal    1000
C240    240    110    0.1326e-12
*
***Zero at 1800MHz***
g245    245    110    240    110    0.001
R245    245    246    Rideal    1000
L245    246    110    0.0884e-6
*
***Buffer***
g250    250    110    245    110    0.001
R250    250    110    Rideal    1000
*
***Buffer***
g255    255    110    250    110    0.001
R255    255    110    Rideal    1000
*
***Buffer***
g260    260    110    255    110    0.001
R260    260    110    Rideal    1000
*
***Buffer***
g265    265    110    260    110    0.001
R265    265    110    Rideal    1000
*
***Buffer***
g270    270    110    265    110    0.001
R270    270    110    Rideal    1000
*
***Buffer***
e280    280    110    270    110    1
R280    280    285    Rideal    10
*
***Peak: f=160MHz, Zeta=0.7, Gain=1.2dB***
e290    290    110    285    110    1
R290    290    292    Rideal    10
L290    290    291    7.105e-9
C290    291    292    139.26e-12
R291    292    110    Rideal    67.498
e295    295    110    292    110    1.1482
*
*
***Output Stage***
g300    300    110    295    110    0.001
R300    300    110    Rideal    1000
e301    301    110    300    110    1
Rout    302    303    Rideal     33
Lout    303    310     4.6e-9
Cout    310    110     1e-12
*
*
***Output Current Limit***
H1    301    304    Vsense1    100
Vsense1    301    302    dc    0
VIoutP    305    304    dc    15.336
VIoutN    304    306    dc    19.336
DIoutP    307    305    diode
DIoutN    306    307    diode
Rx3    307    300    Rideal    0.001
*
*
***Output Clamp-2***
VoutP1    111    73    dc    1.685
VoutN1    74    112    dc    1.685
DVoutP1    75    73    diode
DVoutN1    74    75    diode
RX4    75    310    Rideal    0.001
*
*
***Supply Currents***
FIoVcc    314    110    Vmeas8    1
Vmeas8    310    311    dc    0
R314    110    314    Rideal    1e9
DzOVcc    110    314    diode
DOVcc    102    314    diode
RX5    311    312    Rideal    0.001
FIoVee    315    110    Vmeas9    1
Vmeas9    312    313    dc    0
R315    315    110    Rideal    1e9
DzOVee    315    110    diode
DOVee    315    103    diode
*
*
***Output Switch***
S4    104    313    106    113    Switch
*
*
*** Common Models ***
.model    diode    d(bv=100)
.model    Switch    vswitch(Von=2.005,Voff=1.995,ron=0.001,roff=1e6)
.model    DzVoutP    D(BV=4.3)
.model    DzVoutN    D(BV=4.3)
.model    DzSlewP    D(BV=111.881)
.model    DzSlewN    D(BV=111.881)
.model    DVnoisy    D(IS=2.29e-15 KF=2.13e-15)
.model    DINnoisy    D(IS=1.03e-17 KF=1.07e-14)
.model    DIPnoisy    D(IS=1.03e-17 KF=1.07e-14)
.model    Rideal    res(T_ABS=-273)
*
.ends AD8038

*AD8039 Macro-model
*Function:Amplifier
*
*Revision History:
*Rev.2.1 Jun 2015-ZZ
*Copyright 2015 by Analog Devices
*
*Refer to http://www.analog.com/Analog_Root/static/techSupport/designTools/spicemodels/license
*for License Statement. Use of this model indicates your acceptance
*of the terms and provisions in the License Staement.
*
*Tested on MultSIm, SiMetrix(NGSpice), PSpice
*
*Not modeled: Distortion, PSRR, Overload Recovery,
*             Shutdown Turn On/Turn Off time
*
*Parameters modeled include:
*   Vos, Ibias, Input CM limits and Typ output voltge swing over full supply range,
*   Open Loop Gain & Phase, Slew Rate, Output current limits, Voltage & Current Noise over temp,
*   Capacitive load drive, Quiescent and dynamic supply currents,
*   Shut Down pin functionality where applicable,
*   Single supply & offset supply functionality.
*
*Node Assignments
*               Non-Inverting Input
*               |   Inverting Input
*               |   |   Positive supply
*               |   |   |   Negative supply
*               |   |   |   |   Output
*               |   |   |   |   |
.Subckt AD8039 100 101 102 103 104
*#ASSOC Category="Op_Amps" symbol=opamp

***Power Supplies***
Rz1    102    1020    Rideal    1e-6
Rz2    103    1030    Rideal    1e-6
Ibias    1020    1030    dc    0.1e-3
DzPS    98    1020    diode
Iquies    1020    98    dc    0.9e-3
S1    98    1030    106    113    Switch
R1    1020    99    Rideal    1e7
R2    99    1030    Rideal    1e7
e1    111    110    1020    110    1
e2    110    112    110    1030    1
e3    110    0    99    0    1
*
*
***Inputs***
S2    1    100    106    113    Switch
S3    9    101    106    113    Switch
VOS    1    2    dc    500e-6
IbiasP    110    2    dc    0.4e-6
IbiasN    110    9    dc    0.4e-6
RinCMP    110    2    Rideal    20e6
RinCMN    9    110    Rideal    20e6
CinCMP    110    2    1e-12
CinCMN    9    110    1e-12
IOS    9    2    0.025e-6
RinDiff    9    2    Rideal    2e3
CinDiff    9    2    0.1e-12
*
*
***Non-Inverting Input with Clamp***
g1    3    110    110    2    0.001
RInP    3    110    Rideal    1e3
RX1    40    3    Rideal    0.001
DInP    40    41    diode
DInN    42    40    diode
VinP    111    41    dc    1.46
VinN    42    112    dc    1.46
*
*
***Vnoise***
hVn    6    5    Vmeas1    707.10678
Vmeas1    20    110    DC    0
Vvn    21    110    dc    0.65
Dvn    21    20    DVnoisy
hVn1    6    7    Vmeas2    707.10678
Vmeas2    22    110    dc    0
Vvn1    23    110    dc    0.65
Dvn1    23    22    DVnoisy
*
*
***Inoise***
FnIN    9    110    Vmeas3    0.7071068
Vmeas3    51    110    dc    0
VnIN    50    110    dc    0.65
DnIN    50    51    DINnoisy
FnIN1    110    9    Vmeas4    0.7071068
Vmeas4    53    110    dc    0
VnIN1    52    110    dc    0.65
DnIN1    52    53    DINnoisy
*
FnIP    2    110    Vmeas5    0.7071068
Vmeas5    31    110    dc    0
VnIP    30    110    dc    0.65
DnIP    30    31    DIPnoisy
FnIP1    110    2    Vmeas6    0.7071068
Vmeas6    33    110    dc    0
VnIP1    32    110    dc    0.65
DnIP1    32    33    DIPnoisy
*
*
***CMRR***
RcmrrP    3    10    Rideal    1e12
RcmrrN    10    9    Rideal    1e12
g10    11    110    10    110    -1e-10
Lcmrr    11    12    1e-12
Rcmrr    12    110    Rideal    1e3
e4    5    3    11    110    1
*
*
***Power Down***
VPD    111    80    dc    4.5
VPD1    81    0    dc    2
RPD    111    106    Rideal    1e6
ePD    80    113    82    0    1
RDP1    82    0    Rideal    1e3
CPD    82    0    1e-10
S5    81    82    83    113    Switch
CDP1    83    0    1e-12
RPD2    106    83    1e6
*
*
***Feedback Pin***
*RF    105    104    Rideal    0.001
*
*
***VFB Stage***
g200    200    110    7    9    1
R200    200    110    Rideal    250
DzSlewP    201    200    DzSlewP
DzSlewN    201    110    DzSlewN
*
*
***Dominant Pole at 48 Hz***
g210    210    110    200    110    3.8149e-6
R210    210    110    Rideal    3.32e6
C210    210    110    1e-012
*
*
***Output Voltage Clamp-1***
RX2    60    210    Rideal    0.001
DzVoutP    61    60    DzVoutP
DzVoutN    60    62    DzVoutN
DVoutP    61    63    diode
DVoutN    64    62    diode
VoutP    65    63    dc    5.839
VoutN    64    66    dc    5.839
e60    65    110    111    110    1.05
e61    66    110    112    110    1.05
*
*
***Pole at 800MHz***
g220    220    110    210    110    0.001
R220    220    110    Rideal    1000
C220    220    110    0.1989e-12
*
***Pole at 900MHz***
g230    230    110    220    110    0.001
R230    230    110    Rideal    1000
C230    230    110    0.1768e-12
*
***Pole at 1200MHz***
g240    240    110    230    110    0.001
R240    240    110    Rideal    1000
C240    240    110    0.1326e-12
*
***Zero at 1800MHz***
g245    245    110    240    110    0.001
R245    245    246    Rideal    1000
L245    246    110    0.0884e-6
*
***Buffer***
g250    250    110    245    110    0.001
R250    250    110    Rideal    1000
*
***Buffer***
g255    255    110    250    110    0.001
R255    255    110    Rideal    1000
*
***Buffer***
g260    260    110    255    110    0.001
R260    260    110    Rideal    1000
*
***Buffer***
g265    265    110    260    110    0.001
R265    265    110    Rideal    1000
*
***Buffer***
g270    270    110    265    110    0.001
R270    270    110    Rideal    1000
*
***Buffer***
e280    280    110    270    110    1
R280    280    285    Rideal    10
*
***Peak: f=160MHz, Zeta=0.7, Gain=1.2dB***
e290    290    110    285    110    1
R290    290    292    Rideal    10
L290    290    291    7.105e-9
C290    291    292    139.26e-12
R291    292    110    Rideal    67.498
e295    295    110    292    110    1.1482
*
*
***Output Stage***
g300    300    110    295    110    0.001
R300    300    110    Rideal    1000
e301    301    110    300    110    1
Rout    302    303    Rideal     33
Lout    303    310     4.6e-9
Cout    310    110     1e-12
*
*
***Output Current Limit***
H1    301    304    Vsense1    100
Vsense1    301    302    dc    0
VIoutP    305    304    dc    15.336
VIoutN    304    306    dc    19.336
DIoutP    307    305    diode
DIoutN    306    307    diode
Rx3    307    300    Rideal    0.001
*
*
***Output Clamp-2***
VoutP1    111    73    dc    1.685
VoutN1    74    112    dc    1.685
DVoutP1    75    73    diode
DVoutN1    74    75    diode
RX4    75    310    Rideal    0.001
*
*
***Supply Currents***
FIoVcc    314    110    Vmeas8    1
Vmeas8    310    311    dc    0
R314    110    314    Rideal    1e9
DzOVcc    110    314    diode
DOVcc    102    314    diode
RX5    311    312    Rideal    0.001
FIoVee    315    110    Vmeas9    1
Vmeas9    312    313    dc    0
R315    315    110    Rideal    1e9
DzOVee    315    110    diode
DOVee    315    103    diode
*
*
***Output Switch***
S4    104    313    106    113    Switch
*
*
*** Common Models ***
.model    diode    d(bv=100)