* Copyright © 2004-2015 Linear Technology Corporation.
* All rights reserved.
*
.subckt LT1457 1 2 3 4 5
A1 2 1 0 0 0 0 0 0 OTA g=0 in=1.5f ink=1
B1 0 N005 I=10u*dnlim(uplim(V(1),V(4)-.6,.1), V(5)+3.4, .1)+1n*V(1)
B2 N005 0 I=10u*dnlim(uplim(V(2),V(4)-.59,.1), V(5)+3.39, .1)+1n*V(2)
C6 4 1 2p Rpar=2T noiseless
C7 1 5 2p noiseless Rpar=2T
C8 2 5 2p Rpar=2T noiseless
C9 4 2 2p Rpar=2T noiseless
A2 0 N005 0 0 0 0 XP 0 OTA g=7.12m asym isource=2.65m isink=-4.6m cout=660p en=12.8n enk=31 Vhigh=1e308 Vlow=-1e308
C10 N005 0 1f Rpar=100K noiseless
M1 4 N004 3 3 N temp=27
M2 5 N004 3 3 P temp=27
C1 N004 0 12f Rpar=1Meg noiseless
C3 4 3 0.5p
C4 3 5 0.5p
D5 N004 3 YU
D6 3 N004 YD
G1 0 N004 XP 0 1µ
C2 3 N004 20f Rser=10k noiseless
R3 4 XP 100Meg noiseless
R4 XP 5 100Meg noiseless
G2 XP 0 XP 4 500m dir=1 vto=-1.8
G3 0 XP 5 XP 500m dir=1 vto=-1.8
D1 4 5 DP
.model X D(Ron=1K Roff=100G Vfwd=-2.06 epsilon=1.0 noiseless)
.model YU D(Ron=500 Roff=1T Vfwd=1.30 epsilon=0.1 noiseless)
.model YD D(Ron=500 Roff=1T Vfwd = 1.2 epsilon=0.1 noiseless)
.model DP D(Ron=100 Roff=1g Vfwd=2 epsilon=.2 ilimit=.2m noiseless)
.model N VDMOS(Vto=-400m Kp=20m)
.model P VDMOS(Vto=400m Kp=20m pchan)
.ends LT1457
*
.subckt LTC1477 1 2 3 4 5 6 7
C4 1 5 500f
M1 2D N004 1 1 N1 M=2
M2 7 N004 1 1 N2 M=.7
M3 6 N004 1 1 N2 M=.7
R2 2 2D 25m
C2 6 5 500f
C3 2 5 500f
C5 7 5 500f
C6 3 5 500f
C8 N004 5 1p Rpar=800k
D2 N003 N004 DILIM
S4 N004 5 N008 5 SOFF
S5 1 N004 N010 N011 SCL
A1 2D 2 0 0 0 0 N010 0 OTA g=390u linear Rout=100k Cout=10f vlow=1e-308 vhigh=1e308
C7 N011 0 10f Rpar=100k
G1 5 N002 N005 0 1
R1 N005 0 1G
G2 5 N003 0 N005 .22
G3 0 N005 5 N003 .22
C1 N002 5 10p Rpar=10Meg
G4 0 N005 N002 5 1
S1 N002 3 N006 N003 SCPREG
C9 3 5 1p
G6 5 N006 3 N009 table(-1 -50n 0 0 900m 0 1.5 50n 2 70n 2.2 75n 3 90n 4.5 120n)
C10 N006 5 1f Rpar=100Meg
M4 N007 N004 1 1 NCGD
R6 N004 N003 1Meg
R7 2D 1 100Meg
R10 1 5 100Meg
D3 N011 0 DLIM
R3 7 2D 500Meg
R4 6 2D 500Meg
D4 5 1 DESD
G8 3 5 3 N009 table(0 0 1 0 2 5u 3.3 19.2u 5 43.1u 6 55u)
G7 0 N011 1 3 80µ vto=-.9 dir=1
R8 2 N007 20
A5 4 5 5 5 5 N009 5 5 SCHMITT vt=1.35 vh=50m trise=1u tfall=400u Vlow=0 Vhigh=10
D1 5 4 DESD
C12 4 5 500f
A6 3 5 5 5 5 5 N012 5 SCHMITT vt=1.8 vh=0 trise=1u vlow=0 vhigh=10
A7 N009 5 5 N012 5 5 N008 5 AND trise=1u Ref=5 Vlow=0 Vhigh=10
.model SCPREG SW(level=2 Ron=100 Roff=100Meg vt=0 vh=-50m)
.model SCL SW(level=2 Ron=1 Roff=1G vt=813m vh=-100m)
.model DLIM D(Ron=100 Roff=1Meg vfwd=8 epsilon=1)
.model DESD D(Ron=1 Roff=1G vfwd=1 epsilon=500m)
.model N1 VDMOS(vto=3 kp=1 mtriode=1.5 Cgs=20n  Rs=15m Cjo=100p Is=0)
.model N2 VDMOS(vto=2.62 kp=1 mtriode=1.5 Cgs=20n Rs=32m Rd=50m Cjo=100p Is=0)
.model NCGD VDMOS(vto=3 kp=1u Cgdmax=40n Cgdmin=10n  Is=0)
.model DILIM D(Ron=10k Roff=10k vfwd=1 epsilon=100m ilimit=400u)
.model SOFF SW(level=2 Ron=80 Roff=100Meg vt=2 vh=1)
.ends LTC1477
*
.subckt LT1672 1 2 3 4 5
A1 2 1 0 0 0 0 0 0 OTA g=0 in=8f ink=54.7
B1 0 N004 I=10u*dnlim(uplim(V(1),V(4)+37,.1), V(5)-.1, .1)+1n*V(1)-663p
B2 N004 0 I=10u*dnlim(uplim(V(2),V(4)+37.01,.1), V(5)-.11, .1)+1n*V(2)
C9 4 2 2.3p Rser=2k noiseless
C10 N004 0 200p Rpar=100K noiseless
D4 4 N011 DBIA3
M1 3 N012 N014 N014 NI temp=27
C2 4 3 1p Rpar=1g noiseless
D1 4 N005 DVLIMU
D5 N012 5 DLIMN1
M2 3 N006 N005 N005 PI temp=27
D8 4 N006 DLIMP1
C3 4 N006 100p Rser=600k noiseless
A3 N009 N010 5 5 5 5 N006 5 OTA g=800n ref=-.021 linear vlow=-1e308 vhigh=1e308
C11 3 5 1p Rpar=1g noiseless
C12 N012 5 50f Rser=20k noiseless
C4 4 N005 1p Rpar=1g noiseless
D2 4 2 DBIA2
D3 4 1 DBIA2
D10 1 N011 DBIA1
D11 2 N011 DBIA1
D6 N012 5 DLIMN2
A4 0 N004 0 0 0 0 N007 0 OTA g=1u linear en=232n/freq**.05 Vhigh=1e308 Vlow=-1e308
C16 N010 3 6.6p
A5 N008 0 N009 N009 N009 N009 N010 N009 OTA g=500n iout=33.5n Vhigh=1e308 Vlow=-1e308
D12 1 4 DBIAOT
D13 2 4 DBIAOT
G1 5 N012 N010 N009 50n
C5 N011 5 20p Rpar=50Meg noiseless
D9 N010 N009 DLIM
C6 2 5 2.3p Rser=2k noiseless
C7 4 1 2.3p Rser=2k noiseless
C8 1 5 2.3p Rser=2k noiseless
C13 4 5 1000p
C15 N006 N012 100f Rser=500k noiseless
D7 4 5 DP
C17 0 N007 8p Rpar=1Meg noiseless
C19 0 N008 8p Rpar=1Meg noiseless
G4 0 N008 N007 0 1µ
D14 N014 5 DVLIMD
C1 N014 5 1p Rpar=1g noiseless
D15 4 N006 DLIMP2
S1 N010 N009 N009 4 SHUT
S2 4 N006 5 4 SHUT
S3 N012 5 5 4 SHUT
C14 N006 3 5p Rser=1Meg noiseless
G2 0 N009 5 0 .5m
G3 0 N009 4 0 .5m
C18 N009 0 150p Rpar=1K
.model DP D(Roff=1T Ron=1k Vfwd=0.5 ilimit=.81u noiseless)
.model DBIA1 D(Ron=100k Roff=100T  Vfwd=.1 ilimit=1.6p epsilon=.1 noiseless)
.model DBIA2 D(Ron=100k Roff=10T Vfwd=0 ilimit=.2p epsilon=1m noiseless)
.model DBIA3 D(Ron=10Meg Roff=100G Vfwd=.7 epsilon=.1 noiseless)
.model DBIAOT D(Ron=50k Roff=100T Vfwd=0 ilimit=170p epsilon=50m noiseless)
.model DVLIMU D(Ron=10 Roff=1Meg Vfwd=34m epsilon=2m noiseless)
.model DVLIMD D(Ron=10 Roff=1Meg Vfwd=49m epsilon=2m noiseless)
.model SHUT SW(Ron=1 Roff=100G vt=-1 vh=-.1 noiseless)
.model NI VDMOS(Vto=300m kp=1.5m lambda=.01)
.model DLIMN1 D(Ron=100 Roff=2g Vfwd=1.8 Vrev=-320m epsilon=.1  noiseless)
.model DLIMN2 D(Ron=400Meg Roff=2G Vfwd=-10m epsilon=100m ilimit=900p noiseless)
.model PI VDMOS(Vto=-300m Kp=2m lambda=.01 pchan is=0)
.model DLIMP1 D(Ron=100k Roff=300Meg Vfwd=1.33 Vrev=-320m epsilon=10m revepsilon=10m noiseless)
.model DLIMP2 D(Ron=100Meg Roff=2g Vfwd=-10m epsilon=100m ilimit=3.5n noiseless)
.model DLIM D(Ron=100k Roff=500Meg Vfwd=100m Vrev=200m epsilon=10m revepsilon=10m noiseless)
.ends LT1672
*
.subckt LT1784 1 2 3 4 5 6
C10 N006 0 10f Rpar=100K noiseless
A4 0 N006 0 0 0 0 N007 0 OTA g=1u linear en=20n enk=8 cout=600f Vlow=-1e308 Vhigh=1e308
C13 4 5 100p
D7 4 5 DP
G7 0 N008 N007 0 1m
L1 N008 0 402.5µ Cpar=1.32p Rser=1.14k Rpar=8.14k noiseless
D14 N007 0 DLIMIN
M1 3 VN 5 5 NI temp=27
C2 4 3 1p Rpar=1g noiseless
D1 4 N009 DILIMU
D5 VN 5 DLIMN1
M2 3 VP N009 N009 PI temp=27
D6 4 VP DLIMP
A2 0 X6 4 4 4 4 VP 4 OTA g=800n ref=-345m linear vlow=-1e308 vhigh=1e308
C3 3 5 1p Rpar=1g noiseless
C4 4 N009 1p Rpar=1G noiseless
D8 VN 5 DLIMN2
C11 X5 N010 1.75p
A3 N008 0 0 0 0 0 X5 0 OTA g=28u iout=4.5u Vhigh=1e308 Vlow=-1e308
D9 X5 0 DLIM
S1 X5 0 0 N004 SHUT
S2 4 VP 0 N004 SHUT
S3 VN 5 0 N004 SHUT
R4 4 N013 8Meg noiseless
R5 N013 5 8Meg noiseless
G1 0 N010 3 N013 10m
C12 N010 0 10f Rpar=100 noiseless
C14 VP 3 .1f
C15 3 VN .1f
A5 0 X6 5 5 5 5 VN 5 OTA g=30n ref=345m linear vlow=-1e308 vhigh=1e308
G2 0 X6 4 N009 1m vto=90m dir=1
G4 0 X6 X5 0 1µ
R6 X6 0 1Meg noiseless
R7 X7 X6 28K noiseless
B3 X7 0 I=15p*ddt(V(X7))*(.5+.5*tanh((-400m-V(VP,4))/5m))
S5 4 5 N004 0 SP2
S6 4 5 N004 0 SP1
A1 2 1 0 0 0 0 0 0 OTA g=0 in=300f ink=20.8
C1 4 2 2.5p Rser=1k Rpar=300Meg noiseless
D2 4 N011 DBIA3
D3 N005 2 DBIA2
D4 N005 1 DBIA2
D10 1 N011 DBIA1
D11 2 N011 DBIA1
D12 1 N005 DBIAOT1
D13 2 N005 DBIAOT1
C5 N011 5 20p
C6 2 5 2.5p Rser=1k noiseless
C7 4 1 2.5p Rser=1k Rpar=300Meg noiseless
C8 1 5 2.5p Rser=1k noiseless
G3 0 N004 4 5 50n
S4 N004 0 6 5 SHUTI
C9 N004 0 4.5p
C16 5 6 100f Rpar=10Meg noiseless
D15 5 1 DPROT
D16 5 2 DPROT
D17 1 N005 DBIAOT2
D18 2 N005 DBIAOT2
S7 N011 5 N004 0 SWBIAS
S8 4 N005 N004 0 SWBIAS2
C17 4 N005 500f
S9 2 1 N004 0 SIN
D19 6 5 DSHUT
B1 N006 0 I=10u*dnlim(uplim(V(2),V(5)+18.11,.1), V(5)-.11, .1)+1n*V(2)
B2 0 N006 I=10u*dnlim(uplim(V(1),V(5)+18.1,.1), V(5)-.1, .1)+1n*V(1)-1.732n
.model DLIMIN D(Ron=1k Roff=1Meg vfwd=200m epsilon=20m vrev=200m revepsilon=20m noiseless)
.model DPROT D(Ron=1k Roff=2G Vfwd=1 epsilon=10m noiseless)
.model SIN SW(ron=200k Roff=1G vt=.5 vh=-100m noiseless)
.model DSHUT D(Ron=1.11Meg Roff=10Meg vfwd=20m epsilon=20m ilimit=9.9u)
.model SP1 SW(Roff=100Meg Ron=1k vt=.5 vh=-200m ilimit=362.1u noiseless)
.model SP2 SW(Roff=100Meg Ron=190k vt=.5 vh=-200m ilimit=65u noiseless)
.model DP D(Roff=100Meg Ron=1k vfwd=600m epsilon=500m ilimit=5.3u noiseless)
.model DILIMU D(Ron=2 Roff=100k Vfwd=59m epsilon=2m noiseless)
.model SHUT SW(Ron=1 Roff=100G vt=-1 vh=-.9 noiseless)
.model SHUTI SW(Ron=100 Roff=20Meg vt=1.2 vh=-10m noiseless)
.model NI VDMOS(Vto=300m kp=15m lambda=.01 noiseless)
.model PI VDMOS(Vto=-300m Kp=15m lambda=.01 pchan is=0 noiseless)
.model DLIMP D(Ron=100k Roff=100Meg Vfwd=3.6 Vrev=-.3  epsilon=10m revepsilon=10m noiseless)
.model DLIM D(Ron=10k Roff=70Meg Vfwd=2 Vrev=100m epsilon=10m revepsilon=10m noiseless)
.model DLIMN1 D(Ron=200k Roff=700Meg Vfwd=2.2 Vrev=-330m epsilon=.1  noiseless)
.model DLIMN2 D(Ron=15Meg Roff=1G Vfwd=-10m epsilon=50m ilimit=25.7n noiseless)
.model DBIA1 D(Ron=1k Roff=100G  Vfwd=.1 ilimit=715n epsilon=.1 noiseless)
.model DBIA2 D(Ron=1k Roff=100G Vfwd=0 ilimit=300n epsilon=10m noiseless)
.model DBIA3 D(Ron=1k Roff=10G Vfwd=1.1 epsilon=.1 noiseless)
.model SWBIAS SW(Ron=500k Roff=1G vt=.5 vh=-200m noiseless)
.model SWBIAS2 SW(Ron=5k Roff=1G vt=.5 vh=-200m noiseless)
.model DBIAOT1 D(Ron=2k Vfwd=0 ilimit=150u epsilon=10m noiseless)
.model DBIAOT2 D(Ron=208k Vfwd=0 ilimit=200u epsilon=50m noiseless)
.ends LT1784
*
.subckt LT1803 1 2 3 4 5
A1 2 1 0 0 0 0 0 0 OTA g=0 in=2.49p ink=88.2
B1 0 N004 I=10u*dnlim(uplim(V(1),V(4)+.2,.1), V(5)-.2, .1)+1n*V(1)-240p
B2 N004 0 I=10u*dnlim(uplim(V(2),V(4)+.21,.1), V(5)-.21, .1)+1n*V(2)
C10 N004 0 3f Rpar=100K noiseless
D4 4 N011 DBIA3
M1 3 N012 5 5 NI temp=27
C2 4 3 1p Rpar=1g noiseless
D5 N012 5 DLIMN1
M2 3 N008 4 4 PI temp=27
D8 4 N008 DLIMP1
C3 4 N008 .08f Rser=20Meg noiseless
A3 N009 N007 5 5 5 5 N008 5 OTA g=80n ref=-.015 linear vlow=-1e308 vhigh=1e308
C11 3 5 1p Rpar=1g noiseless
C12 N012 5 .02f Rser=1Meg noiseless
D10 1 N011 DBIA1
D11 2 N011 DBIA1
D6 N012 5 DLIMN2
A4 0 N004 0 0 0 0 N005 0 OTA g=1u linear en=20.5n enk=512 Vhigh=.21 Vlow=-.21
C16 N007 3 6p
D12 1 4 DESD
D13 2 4 DESD
G1 5 N012 N007 N009 20n
C5 N011 5 20p Rpar=100k noiseless
C7 4 1 1p Rpar=10g noiseless
C13 4 5 1000p
C15 N008 N012 .1f Rser=10Meg noiseless
D7 4 5 DP
C17 0 N005 37f Rpar=1Meg noiseless
G4 0 N006 N005 0 1m
D14 4 N008 DLIMP2
L1 N006 0 13.1µ Cpar=108f Rser=1.24k Rpar=5.17k noiseless
D15 1 2 DIN
D16 N011 1 DBIA2
D3 N011 2 DBIA2
C4 N008 3 .01f
D1 5 2 DESD
D2 5 2 DESD
C1 4 2 1p Rpar=10g noiseless
C6 1 5 1p Rpar=10g noiseless
C8 2 5 1p Rpar=10g noiseless
C14 N009 N007 10f Rpar=80k noiseless
G3 N009 N007 0 N006 3m
G2 0 N009 5 0 50m
G5 0 N009 4 0 50m
C18 N009 0 100p Rpar=10
.model DP D(Roff=1T Ron=1k Vfwd=0.5 ilimit=1.7m noiseless)
.model DBIA1 D(Ron=1k Roff=10G  Vfwd=0  ilimit=2.5u epsilon=.2 noiseless)
.model DBIA2 D(Ron=1k Roff=10T Vfwd=-.1 epsilon=.2 ilimit=125n noiseless)
.model DBIA3 D(Ron=100 Roff=100G Vfwd=1.1 epsilon=10m noiseless)
.model DESD D(Ron=100 Roff=100T Vfwd=1 epsilon=50m noiseless)
.model DVLIMU D(Ron=10 Roff=1Meg Vfwd=45m epsilon=2m noiseless)
.model NI VDMOS(Vto=300m kp=150m  lambda=.01)
.model DLIMN1 D(Ron=100 Roff=10g Vfwd=1.07 Vrev=-340m epsilon=.1  noiseless)
.model DLIMN2 D(Ron=100Meg Roff=10g Vfwd=320m epsilon=700m noiseless)
.model PI VDMOS(Vto=-300m kp=150m lambda=.01 pchan is=0)
.model DLIMP1 D(Ron=100 Roff=1G Vfwd=.94 Vrev=-340m epsilon=600m revepsilon=10m noiseless)
.model DLIMP2 D(Ron=40Meg Roff=2g Vfwd=320m epsilon=500m noiseless)
.model DIN D(Ron=2k Roff=100g Vfwd=1.5 Vrev=1.5 epsilon=100m revepsilon=100m noiseless)
.ends LT1803
*
.subckt LT1815 1 2 3 4 5
A1 2 1 0 0 0 0 0 0 OTA g=0 in=1.28p ink=288
C2 2 1 .1p Rpar=750k noiseless
B1 0 N004 I=10u*dnlim(uplim(V(1),V(4)-.7,.1), V(5)+.7, .1)+1n*V(1)
B2 N004 0 I=10u*dnlim(uplim(V(2),V(4)-.69,.1), V(5)+.69, .1)+1n*V(2)
C9 4 2 1p Rpar=10Meg noiseless
C10 N004 0 1f Rpar=100K noiseless
M1 4 N005 3 3 N temp=27
M2 5 N005 3 3 P temp=27
C3 4 3 1p
D5 N005 3 YU
D6 3 N005 YD
R2 4 N007 80Meg noiseless
R3 N007 5 80Meg noiseless
C4 3 5 1p
C1 2 5 1p Rpar=10G noiseless
C6 4 1 1p Rpar=10Meg noiseless
C7 1 5 1p Rpar=10G noiseless
A6 0 N004 0 0 0 0 N006 0 OTA g=10m linear Cout=1p en=5.96n enk=126 Vhigh=1e308 rout=1k Vlow=-1e308
D2 4 1 DBIAS
D4 4 2 DBIAS
G1 0 N005 N007 0 100µ
C8 0 N005 2f Rpar=10k noiseless
D3 4 5 DC
D7 N006 N009 DNL
C12 N009 0 6.5p Rpar=10k
G2 0 N007 N006 0 7.8µ
C14 N007 0 49.7f
R1 4 5 25k noiseless
G3 N007 0 N007 4 100m dir=1 vto=-.89
G4 0 N007 5 N007 100m dir=1 vto=-.89
.model YU D(Ron=10 Roff=1T Vfwd=.68 epsilon=.1 noiseless)
.model YD D(Ron=100 Roff=1T Vfwd=.61 epsilon=.1 noiseless)
.model N VDMOS(Vto=-100m Kp=390m)
.model P VDMOS(Vto=100m Kp=300m pchan)
.model DBIAS D(Ron=100k Roff=1T Vfwd=.6 ilimit=2u noiseless)
.model DC D(Ron=100 Roff=1G Vfwd=1 epsilon=.1 ilimit=4.393m noiseless)
.model DNL D(Ron=100 Roff=10k Vfwd=4.2 Vrev=4.2 epsilon=.5 revepsilon=.5 noiseless)
.ends LT1815
*
.subckt LT1818 1 2 3 4 5
A1 2 1 0 0 0 0 0 0 OTA g=0 in=1.19p ink=189
C2 2 1 1f Rpar=750k noiseless
B1 0 N004 I=10u*dnlim(uplim(V(1),V(4)-.7,.1), V(5)+.7, .1)+1n*V(1)
B2 N004 0 I=10u*dnlim(uplim(V(2),V(4)-.69,.1), V(5)+.69, .1)+1n*V(2)
C9 4 2 .75p Rpar=10Meg noiseless
C10 N004 0 1f Rpar=100K noiseless
M1 4 N006 3 3 N temp=27
M2 5 N006 3 3 P temp=27
C3 4 3 .1p
D5 N006 3 YU
D6 3 N006 YD
R2 4 N007 100Meg noiseless
R3 N007 5 100Meg noiseless
C4 3 5 .1p
C1 2 5 .75p Rpar=10G noiseless
C6 4 1 .75p Rpar=10Meg noiseless
C7 1 5 .75p Rpar=10G noiseless
D2 4 1 DBIAS
D4 4 2 DBIAS
D3 4 5 DC
G2 0 N007 N008 0 5µ
C14 N007 0 20f
R1 4 5 10k noiseless
A2 0 N004 0 0 0 0 N008 0 OTA g=10m linear Cout=428f en=5.96n enk=126 Vhigh=100 rout=1k Vlow=-100
D7 N006 N005 DLS
G1 0 N005 N007 0 10µ
C12 N005 0 10f Rpar=100K noiseless
D1 N008 0 DNL
C11 N006 0 1.7f Rser=705k Rpar=1Meg noiseless
G5 0 N006 N007 0 1µ
G3 N007 0 N007 4 100m dir=1 vto=-.89
G4 0 N007 5 N007 100m dir=1 vto=-.89
.model YU D(Ron=10 Roff=1T Vfwd=.68 epsilon=.1 noiseless)
.model YD D(Ron=100 Roff=1T Vfwd=.68 epsilon=.1 noiseless)
.model N VDMOS(Vto=-100m Kp=390m)
.model P VDMOS(Vto=100m Kp=300m pchan)
.model DBIAS D(Ron=100k Roff=1T Vfwd=.6 ilimit=1.5u noiseless)
.model DC D(Ron=100 Roff=1G Vfwd=1 epsilon=.1 ilimit=6.294m noiseless)
.model DNL D(Ron=650 Roff=10k Vfwd=2.8 Vrev=2.8 epsilon=.5 revepsilon=.5 noiseless)
.model DLS D(Ron=10k Roff=1T Vfwd=200m Vrev=200m epsilon=20m revepsilon=20m noiseless)
.ends LT1818
*
.subckt LT6010 1 2 3 4 5 6
A1 2 1 0 0 0 0 0 0 OTA g=0 in=100f ink=24.6
B1 0 N004 I=10u*dnlim(uplim(V(1),V(4)-1.1,.1), V(5)+.9, .1)+1n*V(1)-89p
B2 N004 0 I=10u*dnlim(uplim(V(2),V(4)-1.09,.1), V(5)+.89, .1)+1n*V(2)
C10 N004 0 50f Rpar=100K noiseless
M1 3 N011 5 5 NI temp=27
C2 4 3 1p Rpar=860k noiseless
D5 N011 5 DLIMN
M2 3 N007 4 4 PI temp=27
D8 4 N007 DLIMP
C3 4 N007 500f Rser=1.5Meg noiseless
A3 N008 N009 5 5 5 5 N007 5 OTA g=200n ref=-37m linear vlow=-1e308 vhigh=1e308
C11 3 5 1p Rpar=860k noiseless
C12 N011 5 10f Rser=250k noiseless
A4 0 N004 0 0 0 0 N006 0 OTA g=1u linear en=14n enk=4.2 Vhigh=1e308 Vlow=-1e308
C16 N009 3 12p
A5 N006 0 N008 N008 N008 N008 N009 N008 OTA g=30u iout=1.335u Vhigh=1e308 Vlow=-1e308
G1 5 N011 N009 N008 200n
D9 N009 N008 DLIM
C14 N007 3 4f
C7 4 1 2p Rser=2k Rpar=240G noiseless
C13 4 5 1000p
C15 N007 N011 50f Rser=1Meg noiseless
S1 N009 N008 0 N005 SHUT2
C1 N006 0 260f Rpar=1Meg noiseless
C17 5 6 500f Rpar=1Meg noiseless
G2 0 N008 5 0 .5m
G4 0 N008 4 0 .5m
C18 N008 0 200p Rpar=1K noiseless
D1 2 1 DIN
D3 6 5 DSHUT
S4 N007 4 0 N005 SHUT1
S2 5 N011 0 N005 SHUT1
A6 6 5 0 0 0 N005 0 0 SCHMITT Vt=.189 Vh=10m trise=1u tfall=30u
C4 4 2 2p Rser=2k Rpar=240G noiseless
C5 1 5 2p Rser=2k Rpar=240G noiseless
C6 2 5 2p Rser=2k Rpar=240G noiseless
S3 5 2 N005 0 SBIAS
S5 5 1 N005 0 SBIAS
S6 4 5 N005 0 SPOW2
S7 4 5 N005 0 SPOW1
.model DSHUT D(Ron=85k Roff=1Meg Vfwd=.6 epsilon=100m noiseless)
.model DIN D(Ron=1k Roff=20Meg Vfwd=1.5 epsilon=.1 Vrev=1.5 revepsilon=.1 noiseless)
.model SBIAS SW(level=2 Ron=50Meg Roff=100G vt=.5 vh=-.1 ilimit 18p noiseless )
.model SPOW1 SW(level=2 Ron=1k Roff=1G vt=.5 vh=-.1 ilimit=37u noiseless)
.model SPOW2 SW(Ron=255k Roff=1G vt=.5 vh=.1 noiseless)
.model SHUT1 SW(Ron=100k Roff=100G vt=-.8 vh=-100m Vser=305m noiseless)
.model SHUT2 SW(Ron=1k Roff=100G vt=-.8 vh=-100m noiseless)
.model SHUTI SW(level=2 Ron=100k Roff=20Meg vt=.2 vh=-50m noiseless)
.model NI VDMOS(Vto=300m kp=30m lambda=.01)
.model PI VDMOS(Vto=-300m Kp=30m lambda=.01 pchan is=0)
.model DLIM D(Ron=100k Roff=70Meg Vfwd=200m Vrev=200m epsilon=10m revepsilon=10m noiseless)
.model DSLIM D(Ron=100 Roff=1G Vfwd=1.5 Vrev=.1 epsilon=.1 revepsilon=.1 noiseless)
.model DLIMN D(Ron=100k Roff=100Meg Vfwd=1.3 Vrev=-300m epsilon=.1  noiseless)
.model DLIMP D(Ron=100k Roff=100Meg Vfwd=1.25 Vrev=-300m  epsilon=10m revepsilon=10m noiseless)
.ends LT6010
*
.subckt LT6011 1 2 3 4 5
A1 2 1 0 0 0 0 0 0 OTA g=0 in=100f ink=24.6
B1 0 N004 I=10u*dnlim(uplim(V(1),V(4)-1.1,.1), V(5)+.9, .1)+1n*V(1)-89p
B2 N004 0 I=10u*dnlim(uplim(V(2),V(4)-1.09,.1), V(5)+.89, .1)+1n*V(2)
C10 N004 0 50f Rpar=100K noiseless
M1 3 N010 5 5 NI temp=27
C2 4 3 1p Rpar=860k noiseless
D5 N010 5 DLIMN
M2 3 N006 4 4 PI temp=27
D8 4 N006 DLIMP
C3 4 N006 500f Rser=1.5Meg noiseless
A3 N007 N008 5 5 5 5 N006 5 OTA g=200n ref=-37m linear vlow=-1e308 vhigh=1e308
C11 3 5 1p Rpar=860k noiseless
C12 N010 5 10f Rser=250k noiseless
A4 0 N004 0 0 0 0 N005 0 OTA g=1u linear en=14n enk=4.2 Vhigh=1e308 Vlow=-1e308
C16 N008 3 12p
A5 N005 0 N007 N007 N007 N007 N008 N007 OTA g=30u iout=1.335u Vhigh=1e308 Vlow=-1e308
G1 5 N010 N008 N007 200n
D9 N008 N007 DLIM
C14 N006 3 4f
C7 4 1 2p Rser=2k Rpar=240G noiseless
C13 4 5 1000p Rpar=255k noiseless
C15 N006 N010 50f Rser=1Meg noiseless
C1 N005 0 260f Rpar=1Meg noiseless
G2 0 N007 5 0 .5m
G4 0 N007 4 0 .5m
C18 N007 0 200p Rpar=1K noiseless
D1 2 1 DIN
C4 4 2 2p Rser=2k Rpar=240G noiseless
C5 1 5 2p Rser=2k Rpar=240G noiseless
C6 2 5 2p Rser=2k Rpar=240G noiseless
D2 4 5 DPOW
D3 2 5 DBIAS
D4 1 5 DBIAS
.model NI VDMOS(Vto=300m kp=30m lambda=.01)
.model PI VDMOS(Vto=-300m Kp=30m lambda=.01 pchan is=0)
.model DLIM D(Ron=100k Roff=70Meg Vfwd=200m Vrev=200m epsilon=10m revepsilon=10m noiseless)
.model DLIMN D(Ron=100k Roff=100Meg Vfwd=1.3 Vrev=-300m epsilon=.1  noiseless)
.model DLIMP D(Ron=100k Roff=100Meg Vfwd=1.25 Vrev=-300m  epsilon=10m revepsilon=10m noiseless)
.model DIN D(Ron=1k Roff=20Meg Vfwd=1.5 epsilon=.1 Vrev=1.5 revepsilon=.1 noiseless)
.model DBIAS D(Ron=10G Roff=100G Vfwd=.3 epsilon=.1 ilimit=18p noiseless)
.model DPOW D(Ron=1k Vfwd=.5 epsilon=.1 ilimit=37u noiseless)
.ends LT6011
*
.subckt LT6200 1 2 3 4 5 6
A1 2 1 0 0 0 0 0 0 OTA g=0 in=2.16p ink=351 incm=2.7p incmk=351
B1 0 N005 I=10u*dnlim(uplim(V(1),V(4)+.2,.1), V(5)-.2, .1)+1n*V(1)-3.21n
B2 N005 0 I=10u*dnlim(uplim(V(2),V(4)+.21,.1), V(5)-.21, .1)+1n*V(2)
C10 N005 0 .1f Rpar=100K noiseless
M1 3 N013 5 5 NI temp=27
C2 4 3 1p Rpar=1g noiseless
M2 3 N006 4 4 PI temp=27
C3 4 N006 .1f Rser=25Meg noiseless
C11 3 5 1p Rpar=1g noiseless
C12 N013 5 .1f Rser=25Meg noiseless
D6 N013 5 DLIMN
A4 0 N005 0 0 0 0 N007 0 OTA g=1u linear en=1.08n enk=2.7k Vhigh=1e308 Vlow=-1e308
C16 N011 3 63f
D12 1 4 DESD
D13 2 4 DESD
G1 5 N013 N011 N009 10n
C7 4 1 1.55p Rpar=11Meg noiseless
C17 0 N007 8f Rpar=1Meg noiseless
G4 0 N008 N007 0 1m
D14 4 N006 DLIMP
L1 N008 0 5.73µ Cpar=7.46f Rser=1.08k Rpar=13.5k noiseless
D15 1 2 DIN
D16 N014 1 DBIA2
D3 N014 2 DBIA2
D1 5 2 DESD
D2 5 2 DESD
C1 4 2 1.55p Rpar=11Meg noiseless
C6 1 5 1.55p Rpar=11Meg noiseless
C8 2 5 1.55p Rpar=11Meg noiseless
C4 2 1 1.1p Rpar=2.1k Noiseless
D5 N014 1 DBIA3
D8 N014 2 DBIA3
A6 N008 0 N015 N009 N009 N009 N011 N009 OTA g=60u iout=3.15u Rout=800k Vlow=-1e308 Vhigh=1e308
A2 4 6 N009 N009 N009 N015 N009 N009 SCHMITT Vt=1.5 Vh=10m tau=20n
D9 4 6 DSHUT
A5 N009 N011 N015 N009 N009 N009 N006 N009 OTA g=52.5n ref=-.03 linear Vlow=-1e308 Vhigh=1e308
D17 2 N004 DBIA1
D18 1 N004 DBIA1
S1 5 N014 N009 N015 SWB
S2 N010 5 N015 N009 SWB2
C5 N014 5 20p Rpar=1Meg noiseless
D4 4 N014 DBIAZ1
D7 4 N010 DBIAZ2
C14 4 N010 20p Rpar=100g noiseless
G5 0 N009 5 0 50m
G6 0 N009 4 0 50m
C15 N009 0 100p Rpar=10
S3 N010 N004 N015 N009 SWB3
S4 4 5 N015 N009 SWP
C13 4 5 1000p
.model DBIA1 D(Ron=10k Roff=.62Meg  Vfwd=0  ilimit=7.6u epsilon=.1 noiseless)
.model DBIA2 D(Ron=10k Roff=1g Vfwd=-.1 epsilon=.2 ilimit=7.6u noiseless)
.model DBIA3 D(Ron=1k Roff=1g Vfwd=2.9 epsilon=.1 ilimit=8.4u noiseless)
.model DBIAZ1 D(Ron=100 Roff=100G Vfwd=.95 epsilon=10m ilimit=1.2m noiseless)
.model DBIAZ2 D(Ron=1 Roff=100G Vfwd=.95 epsilon=10m noiseless)
.model DESD D(Ron=100 Roff=100T Vfwd=1 epsilon=50m noiseless)
.model NI VDMOS(Vto=300m kp=55m lambda=.01)
.model PI VDMOS(Vto=-300m kp=55m lambda=.01 pchan is=0)
.model DSHUT D(Ron=20k Roff=1g Vfwd=.6 epsilon=100m noiseless)
.model DIN D(Ron=300 Roff=100g Vfwd=.8 Vrev=.8 epsilon=100m revepsilon=100m noiseless)
.model DLIMP D(Ron=100k Roff=1g Vfwd=2 Vrev=340m epsilon=500m revepsilon=100m noiseless)
.model DLIMN D(Ron=1Meg Roff=5g Vfwd=2.1 Vrev=340m epsilon=700m revepsilon=100m  noiseless)
.model SWP SW(Roff=1G Ron=1.3k vt=.5 vh=-.1)
.model SWB SW(Ron=1 Roff=5G vt=-.5 vh=-.1)
.model SWB2 SW(level=2 Ron=10 Roff=500g vt=.5 vh=-.1 ilimit=6.43m)
.model SWB3 SW(Ron=1k Roff=100g vt=.5 vh=-.1)
.ends LT6200
*
.subckt LT6200-5 1 2 3 4 5 6
B1 0 N005 I=10u*dnlim(uplim(V(1),V(4)+.2,.1), V(5)-.2, .1)+1n*V(1)-3.21n
B2 N005 0 I=10u*dnlim(uplim(V(2),V(4)+.21,.1), V(5)-.21, .1)+1n*V(2)
C10 N005 0 .1f Rpar=100K noiseless
M1 3 N013 5 5 NI temp=27
C2 4 3 1p Rpar=1g noiseless
M2 3 N006 4 4 PI temp=27
C3 4 N006 .2f Rser=35Meg noiseless
C11 3 5 1p Rpar=1g noiseless
C12 N013 5 .2f Rser=35Meg noiseless
D6 N013 5 DLIMN
A4 0 N005 0 0 0 0 N007 0 OTA g=1u linear en=1.08n enk=2.7k Vhigh=100m Vlow=-100m
C16 N011 3 10f
D12 1 4 DESD
D13 2 4 DESD
G1 5 N013 N011 N009 10n
C7 4 1 1.55p Rpar=11Meg noiseless
C17 0 N007 10f Rpar=1Meg noiseless
G4 0 N008 N007 0 1m
D14 4 N006 DLIMP
L1 N008 0 4.44µ Cpar=11.37f Rser=1.12k Rpar=9.333k noiseless
D15 1 2 DIN
D16 N014 1 DBIA2
D3 N014 2 DBIA2
D1 5 2 DESD
D2 5 2 DESD
C1 4 2 1.55p Rpar=11Meg noiseless
C6 1 5 1.55p Rpar=11Meg noiseless
C8 2 5 1.55p Rpar=11Meg noiseless
C4 2 1 1.1p Rpar=2.1k Noiseless
D5 N014 1 DBIA3
D8 N014 2 DBIA3
A6 N008 0 N015 N009 N009 N009 N011 N009 OTA g=60u iout=2.61u Rout=800k Vlow=-1e308 Vhigh=1e308
A2 4 6 N009 N009 N009 N015 N009 N009 SCHMITT Vt=1.5 Vh=10m tau=20n
D9 4 6 DSHUT
A5 N009 N011 N015 N009 N009 N009 N006 N009 OTA g=52.5n ref=-.03 linear Vlow=-1e308 Vhigh=1e308
D17 2 N004 DBIA1
D18 1 N004 DBIA1
S1 5 N014 N009 N015 SWB
S2 N010 5 N015 N009 SWB2
C5 N014 5 20p Rpar=1Meg noiseless
D4 4 N014 DBIAZ1
D7 4 N010 DBIAZ2
C14 4 N010 20p Rpar=100g noiseless
G5 0 N009 5 0 50m
G6 0 N009 4 0 50m
C15 N009 0 100p Rpar=10
S3 N010 N004 N015 N009 SWB3
S4 4 5 N015 N009 SWP
C13 4 5 1000p
A1 2 1 0 0 0 0 0 0 OTA g=0 in=2.16p ink=351 incm=2.7p incmk=351
.model DBIA1 D(Ron=10k Roff=.62Meg  Vfwd=0  ilimit=7.6u epsilon=.1 noiseless)
.model DBIA2 D(Ron=10k Roff=1g Vfwd=-.1 epsilon=.2 ilimit=7.6u noiseless)
.model DBIA3 D(Ron=1k Roff=1g Vfwd=2.9 epsilon=.1 ilimit=8.4u noiseless)
.model DBIAZ1 D(Ron=100 Roff=100G Vfwd=.95 epsilon=10m ilimit=1.2m noiseless)
.model DBIAZ2 D(Ron=1 Roff=100G Vfwd=.95 epsilon=10m noiseless)
.model DESD D(Ron=100 Roff=100T Vfwd=1 epsilon=50m noiseless)
.model NI VDMOS(Vto=300m kp=55m lambda=.01)
.model PI VDMOS(Vto=-300m kp=55m lambda=.01 pchan is=0)
.model DSHUT D(Ron=20k Roff=1g Vfwd=.6 epsilon=100m noiseless)
.model DIN D(Ron=300 Roff=100g Vfwd=.8 Vrev=.8 epsilon=100m revepsilon=100m noiseless)
.model DLIMP D(Ron=100k Roff=1g Vfwd=2 Vrev=340m epsilon=500m revepsilon=100m noiseless)
.model DLIMN D(Ron=1Meg Roff=5g Vfwd=2.1 Vrev=340m epsilon=700m revepsilon=100m  noiseless)
.model SWP SW(Roff=1G Ron=1.3k vt=.5 vh=-.1)
.model SWB SW(Ron=1 Roff=5G vt=-.5 vh=-.1)
.model SWB2 SW(level=2 Ron=10 Roff=500g vt=.5 vh=-.1 ilimit=6.43m)
.model SWB3 SW(Ron=1k Roff=100g vt=.5 vh=-.1)
.ends LT6200-5
*
.subckt LT6200-10 1 2 3 4 5 6
B1 0 X0 I=10u*dnlim(uplim(V(1),V(4)+.2,.1), V(5)-.2, .1)+1n*V(1)-3.21n
B2 X0 0 I=10u*dnlim(uplim(V(2),V(4)+.21,.1), V(5)-.21, .1)+1n*V(2)
C10 X0 0 .1f Rpar=100K noiseless
M1 3 N012 5 5 NI temp=27
C2 4 3 1p Rpar=1g noiseless
M2 3 N005 4 4 PI temp=27
C3 4 N005 .2f Rser=35Meg noiseless
C11 3 5 1p Rpar=1g noiseless
C12 N012 5 .2f Rser=35Meg noiseless
D6 N012 5 DLIMN
A4 0 X0 0 0 0 0 N006 0 OTA g=1u linear en=1.08n enk=2.7k Vhigh=60m Vlow=-60m
C16 N010 3 5.8f
D12 1 4 DESD
D13 2 4 DESD
G1 5 N012 N010 N008 10n
C7 4 1 1.55p Rpar=11Meg noiseless
C17 0 N006 8f Rpar=1Meg noiseless
G4 0 N007 N006 0 1m
D14 4 N005 DLIMP
L1 N007 0 4.83µ Cpar=26.5f Rser=1.21k Rpar=5.76k noiseless
D15 1 2 DIN
D16 N013 1 DBIA2
D3 N013 2 DBIA2
D1 5 2 DESD
D2 5 2 DESD
C1 4 2 1.55p Rpar=11Meg noiseless
C6 1 5 1.55p Rpar=11Meg noiseless
C8 2 5 1.55p Rpar=11Meg noiseless
C4 2 1 1.1p Rpar=2.1k Noiseless
D5 N013 1 DBIA3
D8 N013 2 DBIA3
A6 N007 0 N014 N008 N008 N008 N010 N008 OTA g=60u iout=3.58u Rout=800k Vlow=-1e308 Vhigh=1e308
A2 4 6 N008 N008 N008 N014 N008 N008 SCHMITT Vt=1.5 Vh=10m tau=20n
D9 4 6 DSHUT
A5 N008 N010 N014 N008 N008 N008 N005 N008 OTA g=52.5n ref=-.03 linear Vlow=-1e308 Vhigh=1e308
D17 2 N004 DBIA1
D18 1 N004 DBIA1
S1 5 N013 N008 N014 SWB
S2 N009 5 N014 N008 SWB2
C5 N013 5 20p Rpar=1Meg noiseless
D4 4 N013 DBIAZ1
D7 4 N009 DBIAZ2
C14 4 N009 20p Rpar=100g noiseless
G5 0 N008 5 0 50m
G6 0 N008 4 0 50m
C15 N008 0 100p Rpar=10
S3 N009 N004 N014 N008 SWB3
S4 4 5 N014 N008 SWP
C13 4 5 1000p
A1 2 1 0 0 0 0 0 0 OTA g=0 in=2.16p ink=351 incm=2.7p incmk=351
.model DBIA1 D(Ron=10k Roff=.62Meg  Vfwd=0  ilimit=7.6u epsilon=.1 noiseless)
.model DBIA2 D(Ron=10k Roff=1g Vfwd=-.1 epsilon=.2 ilimit=7.6u noiseless)
.model DBIA3 D(Ron=1k Roff=1g Vfwd=2.9 epsilon=.1 ilimit=8.4u noiseless)
.model DBIAZ1 D(Ron=100 Roff=100G Vfwd=.95 epsilon=10m ilimit=1.2m noiseless)
.model DBIAZ2 D(Ron=1 Roff=100G Vfwd=.95 epsilon=10m noiseless)
.model DESD D(Ron=100 Roff=100T Vfwd=1 epsilon=50m noiseless)
.model NI VDMOS(Vto=300m kp=55m lambda=.01)
.model PI VDMOS(Vto=-300m kp=55m lambda=.01 pchan is=0)
.model DSHUT D(Ron=20k Roff=1g Vfwd=.6 epsilon=100m noiseless)
.model DIN D(Ron=300 Roff=100g Vfwd=.8 Vrev=.8 epsilon=100m revepsilon=100m noiseless)
.model DLIMP D(Ron=100k Roff=1g Vfwd=2 Vrev=340m epsilon=500m revepsilon=100m noiseless)
.model DLIMN D(Ron=1Meg Roff=5g Vfwd=2.1 Vrev=340m epsilon=700m revepsilon=100m  noiseless)
.model SWP SW(Roff=1G Ron=1.3k vt=.5 vh=-.1)
.model SWB SW(Ron=1 Roff=5G vt=-.5 vh=-.1)
.model SWB2 SW(level=2 Ron=10 Roff=500g vt=.5 vh=-.1 ilimit=6.43m)
.model SWB3 SW(Ron=1k Roff=100g vt=.5 vh=-.1)
.ends LT6200-10
*
.subckt LT6201 1 2 3 4 5
B1 0 N005 I=10u*dnlim(uplim(V(1),V(4)+.2,.1), V(5)-.2, .1)+1n*V(1)-3.21n
B2 N005 0 I=10u*dnlim(uplim(V(2),V(4)+.21,.1), V(5)-.21, .1)+1n*V(2)
C10 N005 0 .1f Rpar=100K noiseless
M1 3 N012 5 5 NI temp=27
C2 4 3 1p Rpar=1g noiseless
M2 3 N006 4 4 PI temp=27
C3 4 N006 .1f Rser=25Meg noiseless
C11 3 5 1p Rpar=1g noiseless
C12 N012 5 .1f Rser=25Meg noiseless
D6 N012 5 DLIMN
A4 0 N005 0 0 0 0 N007 0 OTA g=1u linear en=1.08n enk=2.7k Vhigh=1e308 Vlow=-1e308
C16 N010 3 63f
D12 1 4 DESD
D13 2 4 DESD
G1 5 N012 N010 N009 10n
C7 4 1 1.55p Rpar=11Meg noiseless
C17 0 N007 8f Rpar=1Meg noiseless
G4 0 N008 N007 0 1m
D14 4 N006 DLIMP
L1 N008 0 5.73µ Cpar=7.46f Rser=1.08k Rpar=13.5k noiseless
D15 1 2 DIN
D16 N004 1 DBIA2
D3 N004 2 DBIA2
D1 5 2 DESD
D2 5 2 DESD
C1 4 2 1.55p Rpar=11Meg noiseless
C6 1 5 1.55p Rpar=11Meg noiseless
C8 2 5 1.55p Rpar=11Meg noiseless
C4 2 1 1.1p Rpar=2.1k Noiseless
D5 N004 1 DBIA3
D8 N004 2 DBIA3
D17 2 N004 DBIA1
D18 1 N004 DBIA1
C5 N004 5 20p Rpar=1Meg noiseless
D7 4 N004 DBIAZ2
C14 4 N004 20p Rpar=100g noiseless
G5 0 N009 5 0 50m
G6 0 N009 4 0 50m
C15 N009 0 100p Rpar=10
C13 4 5 1000p
R3 4 5 1.3k noiseless
D10 N004 5 DBIAZ3
A3 N008 0 N009 N009 N009 N009 N010 N009 OTA g=60u iout=3.15u Rout=800k Vlow=-1e308 Vhigh=1e308
A6 N009 N010 N009 N009 N009 N009 N006 N009 OTA linear g=52.5n ref=-.03 Vlow=-1e308 Vhigh=1e308
A1 2 1 0 0 0 0 0 0 OTA g=0 in=2.16p ink=351 incm=2.7p incmk=351
.model DBIA1 D(Ron=10k Roff=.62Meg  Vfwd=0  ilimit=7.6u epsilon=.1 noiseless)
.model DBIA2 D(Ron=10k Roff=1g Vfwd=-.1 epsilon=.2 ilimit=7.6u noiseless)
.model DBIA3 D(Ron=1k Roff=1g Vfwd=2.9 epsilon=.1 ilimit=8.4u noiseless)
.model DBIAZ2 D(Ron=1 Roff=100G Vfwd=.95 epsilon=10m noiseless)
.model DESD D(Ron=100 Roff=100T Vfwd=1 epsilon=50m noiseless)
.model NI VDMOS(Vto=300m kp=55m lambda=.01)
.model PI VDMOS(Vto=-300m kp=55m lambda=.01 pchan is=0)
.model DSHUT D(Ron=20k Roff=1g Vfwd=.6 epsilon=100m noiseless)
.model DIN D(Ron=300 Roff=100g Vfwd=.8 Vrev=.8 epsilon=100m revepsilon=100m noiseless)
.model DLIMP D(Ron=100k Roff=1g Vfwd=2 Vrev=340m epsilon=500m revepsilon=100m noiseless)
.model DLIMN D(Ron=1Meg Roff=5g Vfwd=2.1 Vrev=340m epsilon=700m revepsilon=100m  noiseless)
.model DBIAZ3 D(Ron=10 Roff=100g Vfwd=.3 epsilon=.1 ilimit=6.43m)
.ends LT6201
*
.subckt LT6202 1 2 3 4 5
A1 2 1 0 0 0 0 0 0 OTA g=0 in=749f ink=196 incm=.8p incmk=196
B1 0 N004 I=10u*dnlim(uplim(V(1),V(4)+.2,.1), V(5)-.2, .1)+1n*V(1)-2.21n
B2 N004 0 I=10u*dnlim(uplim(V(2),V(4)+.21,.1), V(5)-.21, .1)+1n*V(2)
C10 N004 0 .1f Rpar=100K noiseless
D4 4 N011 DBIAZ
M1 3 N012 5 5 NI temp=27
C2 4 3 1p Rpar=1g noiseless
M2 3 N005 4 4 PI temp=27
C3 4 N005 1f Rser=150Meg noiseless
A3 N006 N009 5 5 5 5 N005 5 OTA g=35n ref=-.04 linear vlow=-1e308 vhigh=1e308
C11 3 5 1p Rpar=1g noiseless
C12 N012 5 1f Rser=150Meg noiseless
D10 1 N011 DBIA1
D11 2 N011 DBIA1
D6 N012 5 DLIMN
A4 0 N004 0 0 0 0 N007 0 OTA g=1u linear en=2n enk=1.45k Vhigh=1e308 Vlow=-1e308
C16 N009 3 400f
A5 N008 0 N006 N006 N006 N006 N009 N006 OTA g=258u iout=10.1u Rout=800k Vhigh=1e308 Vlow=-1e308
D12 1 4 DESD
D13 2 4 DESD
G1 5 N012 N009 N006 5n
C5 N011 5 20p Rpar=10k noiseless
C7 4 1 .9p Rpar=8Meg noiseless
C13 4 5 1000p
D7 4 5 DP
C17 0 N007 8f Rpar=1Meg noiseless
G4 0 N008 N007 0 1m
D14 4 N005 DLIMP
L1 N008 0 5.88µ Cpar=13.3f Rser=1.11k Rpar=10.09k noiseless
D15 1 2 DIN
D16 N011 1 DBIA2
D3 N011 2 DBIA2
D1 5 2 DESD
D2 5 2 DESD
C1 4 2 .9p Rpar=8Meg noiseless
C6 1 5 .9p Rpar=8Meg noiseless
C8 2 5 .9p Rpar=8Meg noiseless
C4 2 1 .6p Rpar=12k Noiseless
D5 N011 1 DBIA3
D8 N011 2 DBIA3
G2 0 N006 5 0 .5m
G3 0 N006 4 0 .5m
C14 N006 0 .2p Rpar=1K
.model DP D(Roff=1T Ron=1k Vfwd=0.5 ilimit=1.28m noiseless)
.model DBIA1 D(Ron=10k Roff=10Meg  Vfwd=0  ilimit=.7u epsilon=.1 noiseless)
.model DBIA2 D(Ron=10k Roff=1g Vfwd=-.1 epsilon=.2 ilimit=1.4u noiseless)
.model DBIA3 D(Ron=1k Roff=1g Vfwd=2.8 epsilon=.1 ilimit=.9u noiseless)
.model DBIAZ D(Ron=100 Roff=100G Vfwd=1.1 epsilon=10m noiseless)
.model DESD D(Ron=100 Roff=100T Vfwd=1 epsilon=50m noiseless)