* Copyright © Linear Technology Corp. 2005-2015. All rights reserved.
*
.subckt LT1004-1.2 1 2
R2 1 N007 550k Tc2=2e-5 noiseless
Q14 2 2 N007 0 PNP1 Temp=27
Q4 N004 N004 N003 0 PNP1 Temp=27
R6 1 N003 7.5k noiseless
Q3 N005 N004 1 0 PNP1 M=10 Temp=27
R8 N005 2 500k noiseless
Q1 1 N005 2 0 NPN1 M=10 Temp=27
C1 N004 N005 20p
S1 C 0 2 1 SOFF
Q2 N008 N008 2 0 NPN1 Temp=27
R4 1 N008 600k noiseless
Q5 N006 N008 N010 0 NPN1 Temp=27
R5 N010 2 60k noiseless
Q6 N004 N006 N009 0 NPN1 Temp=27
R7 N009 2 500 noiseless
QNN1 N006 D 1 0 PNP1 Temp=27
C3 D N006 20p
D1 1 2 DBURN
D2 2 1 DFOR Temp=27
A1 N007 1 0 0 0 0 C 0 OTA g=100n linear ref=-629.08639m en=360n*(1+5e-7*freq**1.5)/(1+1e-7*freq**1.5) enk=9 Rout=1Meg Cout=100f vlow=-100m vhigh=10
B1 D 2 I=(5u*V(C))*(.5+.5*tanh((V(D,2)-50m)/10m))*(.5+.5*tanh((V(1,D)-100m)/10m))
C2 D 2 1p Rpar=100Meg noiseless
C4 N008 2 700f
.model DBURN D(Ron=80k Roff=100Meg vfwd=600m epsilon=500m noiseless)
.model DFOR D(IS=1e-11 Rs=10 N=1.2)
.model SOFF SW(Ron=1 Roff=200Meg vt=-600m vh=600m noiseless)
.model NPN1 NPN(BF=120 VAF=100 TF=1n  IKF=5m  CJC=.1p CJE=.1p noiseless)
.model NPN2 NPN(BF=120 VAF=100 TF=1n  IKF=5m  CJC=.1p CJE=1p noiseless)
.model PNP1 PNP(Bf=40 VAF=100 TF=10n IKF=1m  CJC=.1p CJE=.1p noiseless)
.ends LT1004-1.2
*
.subckt LT1004-2.5 1 2
R2 1 N007 550k Tc1=-4e-4 Tc2=2.6e-5 noiseless
Q14 2 N010 N007 0 PNP1 Temp=27
Q4 N004 N004 N003 0 PNP1 Temp=27
R6 1 N003 7.5k noiseless
Q3 N005 N004 1 0 PNP1 Temp=27
R8 N005 2 500k noiseless
Q1 1 N005 2 0 NPN1 M=10 Temp=27
C1 N004 N005 20p
S1 C 0 2 1 SOFF
A2 N007 1 0 0 0 0 C 0 OTA g=100n linear ref=-645.55448m en=360n enk=10 Rout=10Meg Cout=400f vlow=-10 vhigh=10
Q2 N008 N008 2 0 NPN1 Temp=27
R4 1 N008 600k noiseless
Q5 N006 N008 N011 0 NPN1 Temp=27
R5 N011 2 60k noiseless
Q6 N004 N006 N009 0 NPN1 Temp=27
R7 N009 2 500 noiseless
QNN1 N006 D 1 0 PNP1 Temp=27
C3 D N006 20p
B1 D 2 I=(2u*V(C))*(.5+.5*tanh((V(D,2)-50m)/10m))*(.5+.5*tanh((V(1,D)-100m)/10m))
C4 D 2 1p Rpar=100Meg noiseless
D1 1 2 DBURN
D2 2 1 DFOR Temp=27
R1 1 N010 500k noiseless
R10 N010 2 500k noiseless
D3 0 C DTRAN Temp=27
.model NPN1 NPN(BF=120 VAF=100 TF=1n  IKF=5m  CJC=.1p CJE=.1p noiseless)
.model PNP1 PNP(Bf=40 VAF=100 TF=10n IKF=1m  CJC=.1p CJE=.1p noiseless)
.model DTRAN D(IS=1e-12 TT=100u noiseless)
.model DBURN D(Ron=500k Roff=100Meg vfwd=600m epsilon=500m noiseless)
.model DFOR D(IS=1e-11 Rs=10 N=1.2)
.model SOFF SW(Ron=1 Roff=200Meg vt=-600m vh=-600m noiseless)
.ends LT1004-2.5
*
.subckt LT1009 1 2 3
M1 1 N005 2 2 N temp=27
C3 1 2 10p
R1 1 N003 100K tc2=-.6u noiseless
C1 N003 2 17.5f Rser=28.6K Rpar=100K noiseless
G1 2 N005 N003 2 10µ
C2 N005 2 .1p Rpar=100K Rser=5K noiseless
R2 N004 3 30K noiseless
D1 2 1 Y
R6 1 N004 7K noiseless
R7 N004 2 7K noiseless
G2 2 N003 N004 3 1.1µ
.model N VDMOS(Vto=1.25 Kp=10K Is=0)
.model Y D(Ron=.4 Roff=10Meg Vfwd=.6 epsilon=.5 noiseless)
.ends LT1009
*
.subckt LT1021-5 1 2 3 4
A1 3 N007 2 2 2 2 N005 2 OTA g=50u Iout=50u Cout=10p Vlow=-10 Vhigh=100 Rout=5G Ref=5
M1 N002 N003 3 3 N temp=27
M2 2 N003 3 3 P temp=27
C7 N002 3 5p
C8 3 2 5p
D1 1 N002 1V
D2 2 N005 X
G1 2 N003 N005 2 10µ
C4 N003 2 2p Rser=20K Rpar=100K noiseless
D3 N003 3 Y
A2 1 2 2 2 2 2 N004 2 SCHMITT Vt=2.5 Vh=1m Trise=100n
S1 N003 3 2 N004 O
C2 N002 2 10p Rpar=250K noiseless
D5 N002 2 Q
C3 1 2 10p
G2 N005 2 N005 1 1m Vto=5 dir=1
C1 4 2 1p
G3 2 N007 4 N010 1µ
G4 2 N007 4 3 1µ
C5 N007 2 1p Rpar=66K
R1 3 4 100K noiseless
R2 4 N010 100K noiseless
R3 N010 2 300K tc1=-3.6m tc2=6u noiseless
.model X D(Ron=10K Roff=1T Vfwd=-1 epsilon=.1 noiseless)
.model 1V D(Ron=10 Roff=1T Vfwd=.8 epsilon=.2 noiseless)
.model Y D(Ron=100 Roff=1G epsilon=.3 Vfwd=.6 Vrev=.6 revepsilon=.3 noiseless)
.model Z D(Ron=100 Roff=1G epsilon=1 noiseless)
.model Q D(Ron=1K Roff=1K Ilimit=.8m noiseless)
.model N VDMOS(Vto=-3m Kp=.1)
.model P VDMOS(Vto=3m Kp=.1 pchan)
.model O SW(Ron=1 Roff=1G Vt=-.5 Vh=-.4 noiseless)
.ends LT1021-5
*
.subckt LT1021-7 1 2 3
A1 3 2 2 2 2 2 N005 2 OTA g=50u Iout=50u Cout=10p Vlow=-10 Vhigh=100 Rout=5G Ref=7
M1 N002 N003 3 3 N temp=27
M2 2 N003 3 3 P temp=27
C7 N002 3 5p
C8 3 2 5p
D1 1 N002 1V
D2 2 N005 X
G1 2 N003 N005 2 10µ
C4 N003 2 2p Rser=20K Rpar=100K noiseless
D3 N003 3 Y
A2 1 2 2 2 2 2 N004 2 SCHMITT Vt=2.5 Vh=1m Trise=100n
S1 N003 3 2 N004 O
C2 N002 2 10p Rpar=250K
D5 N002 2 Q
C3 1 2 10p
G2 N005 2 N005 1 1m Vto=5 dir=1
D4 3 1 Z
.model X D(Ron=10K Roff=1T Vfwd=-1 epsilon=.1 noiseless)
.model 1V D(Ron=10 Roff=1T Vfwd=.8 epsilon=.2 noiseless)
.model Y D(Ron=100 Roff=1G epsilon=.3 Vfwd=.6 Vrev=.6 revepsilon=.3 noiseless)
.model Z D(Ron=100 Roff=1G epsilon=1 noiseless)
.model Q D(Ron=1K Roff=1K Ilimit=.8m noiseless)
.model N VDMOS(Vto=-3m Kp=.1)
.model P VDMOS(Vto=3m Kp=.1 pchan)
.model O SW(Ron=1 Roff=1G Vt=-.5 Vh=-.4 noiseless)
.ends LT1021-7
*
.subckt LT1021-10 1 2 3 4
A1 3 N007 2 2 2 2 N005 2 OTA g=50u Iout=50u Cout=10p Vlow=-10 Vhigh=100 Rout=5G Ref=10
M1 N002 N003 3 3 N temp=27
M2 2 N003 3 3 P temp=27
C7 N002 3 5p
C8 3 2 5p
D1 1 N002 1V
D2 2 N005 X
G1 2 N003 N005 2 10µ
C4 N003 2 2p Rser=20K Rpar=100K noiseless
D3 N003 3 Y
A2 1 2 2 2 2 2 N004 2 SCHMITT Vt=2.5 Vh=1m Trise=100n
S1 N003 3 2 N004 O
C2 N002 2 10p Rpar=250K noiseless
D5 N002 2 Q
C3 1 2 10p
G2 N005 2 N005 1 1m Vto=5 dir=1
D4 3 1 Z
C1 4 2 1p
R1 3 4 24K noiseless
G3 2 N007 4 2 1µ
G4 2 N007 4 3 1µ
C5 N007 2 1p Rpar=10.4K
R2 4 2 24K noiseless
.model X D(Ron=10K Roff=1T Vfwd=-1 epsilon=.1 noiseless)
.model 1V D(Ron=10 Roff=1T Vfwd=.8 epsilon=.2 noiseless)
.model Y D(Ron=100 Roff=1G epsilon=.3 Vfwd=.6 Vrev=.6 revepsilon=.3 noiseless)
.model Z D(Ron=100 Roff=1G epsilon=1 noiseless)
.model Q D(Ron=1K Roff=1K Ilimit=.8m noiseless)
.model N VDMOS(Vto=-3m Kp=.1)
.model P VDMOS(Vto=3m Kp=.1 pchan)
.model O SW(Ron=1 Roff=1G Vt=-.5 Vh=-.4 noiseless)
.ends LT1021-10
*
.subckt LT1789-1 1 2 3 4 5 6 7 8
R6 A2out 8 100k noiseless
R8 1 A1out 100k noiseless
Q1 N009 N004 8 0 PNP1 Temp=27
D1 7 8 D1p7u
Q2 N022 N019 1 0 PNP1 Temp=27
D2 7 1 D1p7u
C1 N009 4 1p Rpar=50k noiseless
R1 A2out VINM 110k noiseless
R2 A1out VINP 110k noiseless
C7 7 8 1p
C8 7 1 1p
C9 7 A2out 500f
M1 7 N002 A2out A2out NINT temp=27
M2 4 N002 A2out A2out PINT temp=27
R9 7 N002 20Meg noiseless
R10 N002 4 20Meg noiseless
G1 N002 0 N002 7 500m dir=1 vto=-250m
G2 0 N002 4 N002 500m dir=1 vto=-50m
M3 7 N021 A1out A1out NINT temp=27
M4 4 N021 A1out A1out PINT temp=27
R11 7 N021 20Meg noiseless
R12 N021 4 20Meg noiseless
G3 N021 0 N021 7 500m dir=1 vto=-250m
G4 0 N021 4 N021 500m dir=1 vto=-50m
A3 N011 0 0 0 0 0 N002 0 OTA g=20m iout=500u Cout=8n Vhigh=1e308 Vlow=-1e308
C5 A2out N011 24p
A2 4 N022 0 0 0 0 N017 0 OTA g=18u linear Ref=-85m en=100n enk=1.5 Rout=100k Cout=1p vlow=-1e308 vhigh=1e308
A4 N017 0 0 0 0 0 N021 0 OTA g=20m iout=500u Cout=8n Vhigh=1e308 Vlow=-1e308
C13 A1out N017 24p
C15 A2out 4 500f
C16 7 A1out 500f
C17 A1out 4 500f
C10 7 VINM 500f
C11 VINM 4 500f
C12 7 VINP 500f
C18 VINP 4 500f
R15 VINM 6 110k noiseless
R16 VINP 5 110k noiseless
A6 4 N009 0 0 0 0 N011 0 OTA g=18u linear Ref=-85m en=100n enk=1.5 Rout=100k Cout=1p vlow=-1e308 vhigh=1e308
A1 2 3 0 0 0 0 0 0 OTA g=0 in=57f ink=170
M5 6 N023 4 4 NI temp=27
C3 7 6 1p Rpar=10Meg noiseless
M6 6 N006 N005 N005 PI temp=27
C4 7 N006 1p Rser=6Meg noiseless
A5 N010 N013 4 4 4 4 N006 4 OTA g=35n ref=-.0222 linear vlow=-1e308 vhigh=1e308
C6 6 4 1p Rpar=10Meg noiseless
C14 N023 4 1p Rser=6Meg noiseless
D3 N023 4 DLIMN
A7 N008 0 N010 N010 N010 N010 N013 N010 OTA g=7u asym isink=-310n isrc=230n Cout=100f Vlow=-1e308 Vhigh=1e308
G5 4 N023 N013 N010 5n
D4 7 N006 DLIMP
G6 0 N010 7 0 .5m
G7 0 N010 4 0 .5m
C20 N010 0 1p noiseless Rpar=1k
D5 N013 N010 DLIM1
CG1 N008 0 3p Rpar=1Meg Rser=600k noiseless
B1 0 N003 I=10u*dnlim(uplim(V(VINP),V(7)-.58,.1), V(4)-.15, .1)+1n*V(VINP)-189.42p
B2 N003 0 I=10u*dnlim(uplim(V(VINM),V(7)-.57,.1), V(4)-.16, .1)+1n*V(VINM)
C21 N003 0 10p Rpar=100K noiseless
A9 0 N003 0 0 0 0 N008 0 OTA g=1u linear en=20n enk=1.9 Vhigh=1e308 Vlow=-1e308
G8 7 N006 6 7 100µ vto=-200m dir=1
R13 7 N005 1 noiseless
G10 7 N006 7 N005 20m vto=.2m dir=1
G9 N023 4 4 6 100µ vto=-80m dir=1
C22 6 N013 10p
D6 7 4 Dburn
S3 N009 4 4 2 SINRA
C19 N022 4 1p Rpar=50k noiseless
S4 N022 4 4 3 SINRA
D7 2 7 DESD
D8 4 2 DESD
D9 3 7 DESD
D10 4 3 DESD
D11 4 5 DESD
D12 5 7 DESD
D13 N020 7 DESD
D14 4 N020 DESD
R3 N004 2 10 noiseless
A8 2 N004 0 0 0 0 0 0 OTA g=0 in=2.5n ink=1.4
R4 N019 3 10 noiseless
A10 N019 3 0 0 0 0 0 0 OTA g=0 in=2.5n ink=1.4
.model NINT VDMOS(Vto=-10m Kp=100m Is=0)
.model PINT  VDMOS(Vto=10m Kp=100m Is=0 pchan)
.model PNP1 PNP(Is=1.4e-16 Vaf=200 Bf=100 Br=5 Cje=2p Cjc=1p noiseless)
.model D1p7u D(Ron=100 Roff=1g vfwd=330m epsilon=30m ilimit=1.7u noiseless)
.model SINRA SW(Ron=1 Roff=10G vt=100m vh=-100m noiseless)
.model DESD D(Ron=100 Roff=1G vfwd=600m epsilon=500m noiseless)
.model NI VDMOS(Vto=300m kp=20m lambda=.01 Rs=200 Is=0)
.model PI VDMOS(Vto=-300m kp=20m lambda=.01 Is=0 pchan)
.model Dburn D(Ron=10k Roff=1g vfwd=1 epsilon=500m ilimit=45.9u noiseless)
.model DLIM1 D(Ron=100 Roff=100Meg Vfwd=2 epsilon=100m Vrev=2 revepsilon=100m noiseless)
.model DLIMP D(Ron=100k Roff=1g Vfwd=800m Vrev=-290m epsilon=500m revepsilon=20m noiseless)
.model DLIMN D(Ron=50Meg Roff=5g Vfwd=1.5 Vrev=-290m epsilon=500m revepsilon=20m  noiseless)
.ends LT1789-1
*
.subckt LT1789-10 1 2 3 4 5 6 7 8
R6 A2out 8 100k noiseless
R8 1 A1out 100k noiseless
Q1 N008 N004 8 0 PNP1 temp=27
D1 7 8 D1p7u
Q2 N021 N018 1 0 PNP1 temp=27
D2 7 1 D1p7u
C1 N008 4 1p Rpar=50k noiseless
R1 A2out VINM 10k noiseless
R2 A1out VINP 10k noiseless
C7 7 8 1p
C8 7 1 1p
C9 7 A2out 500f
M1 7 N002 A2out A2out NINT temp=27
M2 4 N002 A2out A2out PINT temp=27
R9 7 N002 20Meg noiseless
R10 N002 4 20Meg noiseless
G1 N002 0 N002 7 500m dir=1 vto=-250m
G2 0 N002 4 N002 500m dir=1 vto=-50m
M3 7 N020 A1out A1out NINT temp=27
M4 4 N020 A1out A1out PINT temp=27
R11 7 N020 20Meg noiseless
R12 N020 4 20Meg noiseless
G3 N020 0 N020 7 500m dir=1 vto=-250m
G4 0 N020 4 N020 500m dir=1 vto=-50m
A3 N010 0 0 0 0 0 N002 0 OTA g=20m iout=500u Cout=8n Vhigh=1e308 Vlow=-1e308
C5 A2out N010 24p
A2 4 N021 0 0 0 0 N016 0 OTA g=18u linear Ref=-85m en=81n enk=1.4 Rout=100k Cout=1p vlow=-1e308 vhigh=1e308
A4 N016 0 0 0 0 0 N020 0 OTA g=20m iout=500u Cout=8n Vhigh=1e308 Vlow=-1e308
C13 A1out N016 24p
C15 A2out 4 500f
C16 7 A1out 500f
C17 A1out 4 500f
C10 7 VINM 500f
C11 VINM 4 500f
C12 7 VINP 500f
C18 VINP 4 500f
R15 VINM 6 100k noiseless
R16 VINP 5 100k noiseless
A6 4 N008 0 0 0 0 N010 0 OTA g=18u linear Ref=-85m en=81n enk=1.4 Rout=100k Cout=1p vlow=-1e308 vhigh=1e308
A1 2 3 0 0 0 0 0 0 OTA g=0 in=57f ink=170
M5 6 NG 4 4 NI temp=27
C3 7 6 1p Rpar=10Meg noiseless
M6 6 PG N005 N005 PI temp=27
C4 7 PG 220f Rser=6Meg noiseless
A5 N009 N012 4 4 4 4 PG 4 OTA g=35n ref=-.0222 linear vlow=-1e308 vhigh=1e308
C6 6 4 1p Rpar=10Meg noiseless
C14 NG 4 220f Rser=6Meg noiseless
D3 NG 4 DLIMN
A7 N007 0 N009 N009 N009 N009 N012 N009 OTA g=7u asym isink=-280n isrc=230n Cout=100f Vlow=-1e308 Vhigh=1e308
G5 4 NG N012 N009 5n
D4 7 PG DLIMP
G6 0 N009 7 0 .5m
G7 0 N009 4 0 .5m
C20 N009 0 1p noiseless Rpar=1k
D5 N012 N009 DLIM1
CG1 N007 0 2p Rpar=1Meg Rser=600k noiseless
B1 0 N003 I=10u*dnlim(uplim(V(VINP),V(7)-.58,.1), V(4)-.15, .1)+1n*V(VINP)-190.9p
B2 N003 0 I=10u*dnlim(uplim(V(VINM),V(7)-.57,.1), V(4)-.16, .1)+1n*V(VINM)
C21 N003 0 10f Rpar=100K noiseless
A9 0 N003 0 0 0 0 N007 0 OTA g=1u linear en=20n enk=1.9 Vhigh=1e308 Vlow=-1e308
G8 7 PG 6 7 100µ vto=-200m dir=1
R13 7 N005 1 noiseless
G10 7 PG 7 N005 20m vto=.2m dir=1
G9 NG 4 4 6 100µ vto=-80m dir=1
C22 6 N012 3.44p
D6 7 4 Dburn
S3 N008 4 4 2 SINRA
C19 N021 4 1p Rpar=50k noiseless
S4 N021 4 4 3 SINRA
D7 2 7 DESD
D8 4 2 DESD
D9 3 7 DESD
D10 4 3 DESD
D11 4 5 DESD
D12 5 7 DESD
D13 N019 7 DESD
D14 4 N019 DESD
R3 N004 2 10 noiseless
R4 N018 3 10 noiseless
A11 2 N004 0 0 0 0 0 0 OTA g=0 in=2.5n ink=1.4
A12 N018 3 0 0 0 0 0 0 OTA g=0 in=2.5n ink=1.4
.model NINT VDMOS(Vto=-10m Kp=100m Is=0)
.model PINT  VDMOS(Vto=10m Kp=100m Is=0 pchan)
.model PNP1 PNP(Is=1.4E-16 Vaf=200 Bf=100 Br=5 Cje=2p Cjc=1p noiseless)
.model D1p7u D(Ron=100 Roff=1g vfwd=330m epsilon=30m ilimit=1.7u noiseless)
.model SINRA SW(Ron=1 Roff=10G vt=100 vh=-100m noiseless)
.model DESD D(Ron=100 Roff=1G vfwd=600m epsilon=500m noiseless)
.model NI VDMOS(Vto=300m kp=20m lambda=.01 Rs=200 Is=0)
.model PI VDMOS(Vto=-300m kp=20m lambda=.01 Is=0 pchan)
.model Dburn D(Ron=10k Roff=1g vfwd=1 epsilon=500m ilimit=45.9u noiseless)
.model DLIM1 D(Ron=100 Roff=100Meg Vfwd=2 epsilon=100m Vrev=2 revepsilon=100m noiseless)
.model DLIMP D(Ron=100k Roff=1g Vfwd=800m Vrev=-290m epsilon=500m revepsilon=10m noiseless)
.model DLIMN D(Ron=50Meg Roff=5g Vfwd=1.5 Vrev=-290m epsilon=500m revepsilon=10m  noiseless)
.ends LT1789-10
*
.subckt LT1990 1 2 3 4 5 6 7 8
B1 0 N006 I=10u*dnlim(uplim(V(VINP),V(7)-.74,.1), V(4)+.9, .1)+1n*V(VINP)
B2 N006 0 I=10u*dnlim(uplim(V(VINM),V(7)-.73,.1), V(4)+.89, .1)+1n*V(VINM)
C6 7 VINP .5p Rpar=4T noiseless
C7 VINP 4 .5p noiseless Rpar=4T
C8 VINM 4 .5p Rpar=4T noiseless
C9 7 VINM .5p Rpar=4T noiseless
A2 0 N006 0 0 0 0 N009 0 OTA g=5m iout=216u cout=415p en=37n enk=1.3 Vhigh=1e308 Vlow=-1e308
C10 N006 0 400f Rpar=100K noiseless
M1 7 N005 6 6 N temp=27
M2 4 N005 6 6 P temp=27
C1 N005 0 1.4p Rpar=1Meg noiseless
C3 7 6 .5p
C4 6 4 .5p
D5 N005 6 YU
D6 6 N005 YD
G1 0 N005 N009 0 1µ
D2 7 4 DP
R1 VINM 2 1Meg noiseless
R3 VINM 1 40k noiseless
R7 5 N008 10k
R8 N002 6 100k noiseless
R9 VINM N002 900k noiseless
R10 8 N002 10k noiseless
R6 7 N009 1G noiseless
R12 N009 4 1G noiseless
G2 N009 0 N009 7 500m dir=1 vto=-26m
G3 0 N009 4 N009 500m dir=1 vto=-26m
R13 7 4 714k noiseless
R4 1 VINP 40k noiseless
R2 VINP 3 1Meg noiseless
R11 N008 VINP 900k noiseless
R5 1 N008 100k noiseless
.model X D(Ron=1K Roff=100G Vfwd=-.95 epsilon=1.0 noiseless)
.model YU D(Ron=500 Roff=1T Vfwd=.62 epsilon=0.1 noiseless)
.model YD D(Ron=500 Roff=1T Vfwd = .95 epsilon=0.1 noiseless)
.model N VDMOS(Vto=-35m Kp=40m)
.model P VDMOS(Vto=35m Kp=40m pchan)
.model DP D(Ron=1k Roff=1T Vfwd=0.7 ilimit=73.5u noiseless)
.ends LT1990
*
.subckt LT1993-2 1 2 3 4 5 6 7 8 9 10 11 12 13 14 15 16
C1 INAMI INAPI .1p Rpar=100Meg noiseless
B1 0 N002 I=10u*dnlim(uplim(V(INAPI),V(3)+.2,.1), V(4)-.2, .1)+1n*V(INAPI)
B2 N002 0 I=10u*dnlim(uplim(V(INAMI),V(3)+.21,.1), V(4)-.21, .1)+1n*V(INAMI)
C2 3 INAMI 1p Rpar=20Meg noiseless
C3 N002 0 .5f Rpar=100K noiseless
R5 3 N007 100Meg noiseless
R6 N007 4 100Meg noiseless
C5 INAMI 4 1p Rpar=20Meg noiseless
C6 3 INAPI 1p Rpar=20Meg noiseless
C7 INAPI 4 1p Rpar=20Meg noiseless
M1 3 N004 5 5 N temp=27
M2 4 N012 5 5 P temp=27
C12 3 5 .8p
D6 N004 5 Y
D7 5 N012 Y
A3 N003 0 N007 N007 N007 N007 N004 N007 SCHMITT Vt=.5 Vh=10m Vhigh=0 Vlow=-10 Rout=1k Cout=1p
A4 N003 0 N007 N007 N007 N012 N007 N007 SCHMITT Vt=.5 Vh=10m Vhigh=10 Vlow=0 Rout=1k Cout=1p
C13 5 4 .8p Rpar=100Meg noiseless
G3 N007 0 N007 3 100m dir=1 vto=-1.15
G4 0 N007 4 N007 100m dir=1 vto=-.14
R2 INAMI 14 200
R3 INAPI 16 200
R4 5 INAMI 200
C4 INCMI 2 .1p Rpar=1.6Meg noiseless
B3 0 N015 I=10u*dnlim(uplim(V(2),V(1)-1.2,.1), V(12)+.9, .1)+1n*V(2)
B4 N015 0 I=10u*dnlim(uplim(V(INCMI),V(1)-1.19,.1), V(12)+.89, .1)+1n*V(INCMI)
C9 1 INCMI 1p Rpar=20Meg noiseless
C10 N015 0 1f Rpar=100K noiseless
R7 1 N018 100Meg noiseless
R8 N018 12 100Meg noiseless
C11 INCMI 12 1p Rpar=20Meg noiseless
C14 1 2 1p Rpar=20Meg noiseless
C15 2 12 1p Rpar=2.95Meg noiseless
A7 0 N015 N003 0 0 0 N018 0 OTA g=1m iout=100u Cout=620f en=4n Vhigh=1e308 Vlow=-1e308
G5 N018 0 N018 1 100m dir=1 vto=-1
G6 0 N018 12 N018 100m dir=1 vto=-.8
S2 3 4 N003 0 swPow
G7 0 INCMI N018 0 100m
C16 0 INCMI 100f Rpar=10 noiseless
R1 INAPI INCMI 200
A8 11 12 0 0 0 N003 0 0 SCHMITT Vt=1 Vh=10m trise=20n tfall=300n Vlow=0 Vhigh=1
R9 5 6 25
C18 INBPI INBMI .1p Rpar=100Meg noiseless
B5 0 N022 I=10u*dnlim(uplim(V(INBMI),V(3)+.2,.1), V(4)-.2, .1)+1n*V(INBMI)
B6 N022 0 I=10u*dnlim(uplim(V(INBPI),V(3)+.21,.1), V(4)-.21, .1)+1n*V(INBPI)
C19 10 INBPI 1p Rpar=20Meg noiseless
C20 N022 0 .5f Rpar=100K noiseless
R10 10 N025 100Meg noiseless
R11 N025 9 100Meg noiseless
C21 INBPI 9 1p Rpar=20Meg noiseless
C22 10 INBMI 1p Rpar=20Meg noiseless
C23 INBMI 9 1p Rpar=20Meg noiseless
M3 10 N023 8 8 N temp=27
M4 9 N029 8 8 P temp=27
C25 10 8 .8p
D9 N023 8 Y
D10 8 N029 Y
A9 N003 0 N025 N025 N025 N025 N023 N025 SCHMITT Vt=.5 Vh=10m Vhigh=0 Vlow=-10 Rout=1k Cout=1p
A10 N003 0 N025 N025 N025 N029 N025 N025 SCHMITT Vt=.5 Vh=10m Vhigh=10 Vlow=0 Rout=1k Cout=1p
G9 N025 0 N025 10 100m dir=1 vto=-1.15
G10 0 N025 9 N025 100m dir=1 vto=-.14
R12 INBPI 15 200
R13 INBMI 13 200
R14 8 INBPI 200
C27 7 9 12p Rpar=1T noiseless
R16 8 7 25
R15 INCMI INBMI 200
C17 6 4 12p Rpar=1T noiseless
C28 6 7 12p Rpar=1T noiseless
G1 0 N009 N008 0 1m
L3 N009 0 .806µ Cpar=.035f Rser=1.01k Rpar=101k noiseless
G2 0 N027 N026 0 1m
L1 N027 0 .806µ Cpar=.035f Rser=1.01k Rpar=101k noiseless
C8 8 9 .8p Rpar=100Meg noiseless
A15 0 N009 0 0 0 0 N007 0 OTA g=1m iout=50u Cout=70f Vlow=-1e308 Vhigh=1e308
A11 0 N027 0 0 0 0 N025 0 OTA g=1m iout=50u Cout=70f Vlow=-1e308 Vhigh=1e308
R18 12 11 2Meg noiseless
A12 0 N002 N003 0 0 0 N008 0 OTA g=1u linear Cout=1.8f en=1n+10p*freq**.28 Rout=1Meg Vlow=-64m Vhigh=64m
A5 0 N022 N003 0 0 0 N026 0 OTA g=1u linear Cout=1.8f en=1n+10p*freq**.28 Rout=1Meg Vlow=-64m Vhigh=64m
S4 N006 4 N003 0 swBias
D11 INAMI N006 DBIAS
D1 INAPI N006 DBIAS
S3 10 9 N003 0 swPow
S5 N024 9 N003 0 swBias
D2 INBPI N024 DBIAS
D4 INBMI N024 DBIAS
S1 1 12 N003 0 swPow
S6 N016 12 N003 0 swBias
D3 INCMI N016 DBIAS
D5 2 N016 DBIAS
.model Y D(Ron=100 Roff=1T Vfwd=.45 epsilon=.1 noiseless)
.model N VDMOS(Vto=-150m Kp=300m)
.model P VDMOS(Vto=150m Kp=300m pchan)
.model swPow SW(level=2 Ron=50 Roff=75.8k vt=.5 vh=-50m ilimit=28.9m noiseless)
.model swBias SW(Ron=10k Roff=100G vt=.5 vh=-50m noiseless)
.model DBIAS D(Ron=10k Roff=1G Vfwd=.6 ilimit=5u noiseless)
.model DC D(Ron=2k Roff=1G Vfwd=1 epsilon=.1 ilimit=374u noiseless)
.model DNL D(Ron=100 Roff=10k Vfwd=7 Vrev=4 epsilon=.5 revepsilon=.5 noiseless)
.ends LT1993-2
*
.subckt LT1993-4 1 2 3 4 5 6 7 8 9 10 11 12 13 14 15 16
C1 INAMI INAPI .1f Rpar=100Meg noiseless
B1 0 N002 I=10u*dnlim(uplim(V(INAPI),V(3)+.2,.1), V(4)-.2, .1)+1n*V(INAPI)
B2 N002 0 I=10u*dnlim(uplim(V(INAMI),V(3)+.21,.1), V(4)-.21, .1)+1n*V(INAMI)
C2 3 INAMI 1p Rpar=20Meg noiseless
C3 N002 0 .02f Rpar=100K noiseless
R5 3 N008 100Meg noiseless
R6 N008 4 100Meg noiseless
C5 INAMI 4 1p Rpar=20Meg noiseless
C6 3 INAPI 1p Rpar=20Meg noiseless
C7 INAPI 4 1p Rpar=20Meg noiseless
M1 3 N005 5 5 N temp=27
M2 4 N013 5 5 P temp=27
C12 3 5 .8p
D6 N005 5 Y
D7 5 N013 Y
A3 N004 0 N008 N008 N008 N008 N005 N008 SCHMITT Vt=.5 Vh=10m Vhigh=0 Vlow=-10 Rout=1k Cout=1p
A4 N004 0 N008 N008 N008 N013 N008 N008 SCHMITT Vt=.5 Vh=10m Vhigh=10 Vlow=0 Rout=1k Cout=1p
C13 5 4 .8p Rpar=100Meg noiseless
G3 N008 0 N008 3 100m dir=1 vto=-1.15
G4 0 N008 4 N008 100m dir=1 vto=-.14
R2 INAMI 14 100
R3 INAPI 16 100
R4 5 INAMI 200
C4 INCMI 2 .1p Rpar=1.6Meg noiseless
B3 0 N016 I=10u*dnlim(uplim(V(2),V(1)-1.2,.1), V(12)+.9, .1)+1n*V(2)
B4 N016 0 I=10u*dnlim(uplim(V(INCMI),V(1)-1.19,.1), V(12)+.89, .1)+1n*V(INCMI)
C9 1 INCMI 1p Rpar=20Meg noiseless
C10 N016 0 1f Rpar=100K noiseless
R7 1 N019 100Meg noiseless
R8 N019 12 100Meg noiseless
C11 INCMI 12 1p Rpar=20Meg noiseless
C14 1 2 1p Rpar=20Meg noiseless
C15 2 12 1p Rpar=2.95Meg noiseless
A7 0 N016 N004 0 0 0 N019 0 OTA g=1m iout=100u Cout=620f en=4n Vhigh=1e308 Vlow=-1e308
G5 N019 0 N019 1 100m dir=1 vto=-1
G6 0 N019 12 N019 100m dir=1 vto=-.8
S2 3 4 N004 0 swPow
G7 0 INCMI N019 0 100m
C16 0 INCMI 100f Rpar=10 noiseless
R1 INAPI INCMI 200
A8 11 12 0 0 0 N004 0 0 SCHMITT Vt=1 Vh=10m trise=20n tfall=300n Vlow=0 Vhigh=1
R9 5 6 25
C18 INBPI INBMI .1f Rpar=100Meg noiseless
B5 0 N023 I=10u*dnlim(uplim(V(INBMI),V(3)+.2,.1), V(4)-.2, .1)+1n*V(INBMI)
B6 N023 0 I=10u*dnlim(uplim(V(INBPI),V(3)+.21,.1), V(4)-.21, .1)+1n*V(INBPI)
C19 10 INBPI 1p Rpar=20Meg noiseless
C20 N023 0 .02f Rpar=100K noiseless
R10 10 N027 100Meg noiseless
R11 N027 9 100Meg noiseless
C21 INBPI 9 1p Rpar=20Meg noiseless
C22 10 INBMI 1p Rpar=20Meg noiseless
C23 INBMI 9 1p Rpar=20Meg noiseless
M3 10 N025 8 8 N temp=27
M4 9 N031 8 8 P temp=27
C25 10 8 .8p
D9 N025 8 Y
D10 8 N031 Y
A9 N004 0 N027 N027 N027 N027 N025 N027 SCHMITT Vt=.5 Vh=10m Vhigh=0 Vlow=-10 Rout=1k Cout=1p
A10 N004 0 N027 N027 N027 N031 N027 N027 SCHMITT Vt=.5 Vh=10m Vhigh=10 Vlow=0 Rout=1k Cout=1p
G9 N027 0 N027 10 100m dir=1 vto=-1.15
G10 0 N027 9 N027 100m dir=1 vto=-.14
R12 INBPI 15 100
R13 INBMI 13 100
R14 8 INBPI 200
C27 7 9 12p Rpar=1T noiseless
R16 8 7 25
R15 INCMI INBMI 200
C17 6 4 12p Rpar=1T noiseless
C28 6 7 12p Rpar=1T noiseless
G1 0 N009 N011 0 1m
G2 0 N028 N030 0 1m
C8 8 9 .8p Rpar=100Meg noiseless
A15 0 N009 0 0 0 0 N008 0 OTA g=1m iout=49u Cout=70f Vlow=-1e308 Vhigh=1e308
A11 0 N028 0 0 0 0 N027 0 OTA g=1m iout=49u Cout=70f Vlow=-1e308 Vhigh=1e308
R18 12 11 2Meg noiseless
S4 N007 4 N004 0 swBias
D11 INAMI N007 DBIAS
D1 INAPI N007 DBIAS
S3 10 9 N004 0 swPow
S5 N026 9 N004 0 swBias
D2 INBPI N026 DBIAS
D4 INBMI N026 DBIAS
S1 1 12 N004 0 swPow
S6 N017 12 N004 0 swBias
D3 INCMI N017 DBIAS
D5 2 N017 DBIAS
C24 N009 0 30f Rpar=1k noiseless
C26 N028 0 30f Rpar=1k noiseless
G8 0 N011 N003 0 1m
C29 N011 0 30f Rpar=1k noiseless
G11 0 N030 N024 0 1m
C30 N030 0 30f Rpar=1k noiseless
A1 0 N002 N004 0 0 0 N003 0 OTA g=1m linear Cout=20f en=.85n+10p*freq**.28 Rout=1k Vlow=-100m Vhigh=100m
A2 0 N023 N004 0 0 0 N024 0 OTA g=1m linear Cout=20f en=.85n+10p*freq**.28 Rout=1k Vlow=-100m Vhigh=100m
.model Y D(Ron=100 Roff=1T Vfwd=.45 epsilon=.1 noiseless)
.model N VDMOS(Vto=-150m Kp=300m)
.model P VDMOS(Vto=150m Kp=300m pchan)
.model swPow SW(level=2 Ron=50 Roff=75.8k vt=.5 vh=-50m ilimit=28.9m noiseless)
.model swBias SW(Ron=10k Roff=100G vt=.5 vh=-50m noiseless)
.model DBIAS D(Ron=10k Roff=1G Vfwd=.6 ilimit=5u noiseless)
.model DC D(Ron=2k Roff=1G Vfwd=1 epsilon=.1 ilimit=374u noiseless)
.model DNL D(Ron=100 Roff=10k Vfwd=7 Vrev=4 epsilon=.5 revepsilon=.5 noiseless)
.ends LT1993-4
*
.subckt LT1993-10 1 2 3 4 5 6 7 8 9 10 11 12 13 14 15 16
C1 INAMI INAPI .1f Rpar=100Meg noiseless
B1 0 N002 I=10u*dnlim(uplim(V(INAPI),V(3)+.2,.1), V(4)-.2, .1)+1n*V(INAPI)
B2 N002 0 I=10u*dnlim(uplim(V(INAMI),V(3)+.21,.1), V(4)-.21, .1)+1n*V(INAMI)
C2 3 INAMI 1p Rpar=20Meg noiseless
C3 N002 0 .06f Rpar=100K noiseless
R5 3 N008 100Meg noiseless
R6 N008 4 100Meg noiseless
C5 INAMI 4 1p Rpar=20Meg noiseless
C6 3 INAPI 1p Rpar=20Meg noiseless
C7 INAPI 4 1p Rpar=20Meg noiseless
M1 3 N005 5 5 N temp=27
M2 4 N013 5 5 P temp=27
C12 3 5 .8p
D6 N005 5 Y
D7 5 N013 Y
A3 N004 0 N008 N008 N008 N008 N005 N008 SCHMITT Vt=.5 Vh=10m Vhigh=0 Vlow=-10 Rout=1k Cout=1p
A4 N004 0 N008 N008 N008 N013 N008 N008 SCHMITT Vt=.5 Vh=10m Vhigh=10 Vlow=0 Rout=1k Cout=1p
C13 5 4 .8p Rpar=100Meg noiseless
G3 N008 0 N008 3 100m dir=1 vto=-1.15
G4 0 N008 4 N008 100m dir=1 vto=-.14
R2 INAMI 14 100
R3 INAPI 16 100
R4 5 INAMI 500
C4 INCMI 2 .1p Rpar=1.6Meg noiseless
B3 0 N016 I=10u*dnlim(uplim(V(2),V(1)-1.2,.1), V(12)+.9, .1)+1n*V(2)
B4 N016 0 I=10u*dnlim(uplim(V(INCMI),V(1)-1.19,.1), V(12)+.89, .1)+1n*V(INCMI)
C9 1 INCMI 1p Rpar=20Meg noiseless
C10 N016 0 1f Rpar=100K noiseless
R7 1 N019 100Meg noiseless
R8 N019 12 100Meg noiseless
C11 INCMI 12 1p Rpar=20Meg noiseless
C14 1 2 1p Rpar=20Meg noiseless
C15 2 12 1p Rpar=2.95Meg noiseless
A7 0 N016 N004 0 0 0 N019 0 OTA g=1m iout=100u Cout=620f en=4n Vhigh=1e308 Vlow=-1e308
G5 N019 0 N019 1 100m dir=1 vto=-1
G6 0 N019 12 N019 100m dir=1 vto=-.8
S2 3 4 N004 0 swPow
G7 0 INCMI N019 0 100m
C16 0 INCMI 100f Rpar=10 noiseless
R1 INAPI INCMI 500
A8 11 12 0 0 0 N004 0 0 SCHMITT Vt=1 Vh=10m trise=20n tfall=300n Vlow=0 Vhigh=1
R9 5 6 25
C18 INBPI INBMI .1f Rpar=100Meg noiseless
B5 0 N023 I=10u*dnlim(uplim(V(INBMI),V(3)+.2,.1), V(4)-.2, .1)+1n*V(INBMI)
B6 N023 0 I=10u*dnlim(uplim(V(INBPI),V(3)+.21,.1), V(4)-.21, .1)+1n*V(INBPI)
C19 10 INBPI 1p Rpar=20Meg noiseless
C20 N023 0 .06f Rpar=100K noiseless
R10 10 N027 100Meg noiseless
R11 N027 9 100Meg noiseless
C21 INBPI 9 1p Rpar=20Meg noiseless
C22 10 INBMI 1p Rpar=20Meg noiseless
C23 INBMI 9 1p Rpar=20Meg noiseless
M3 10 N025 8 8 N temp=27
M4 9 N031 8 8 P temp=27
C25 10 8 .8p
D9 N025 8 Y
D10 8 N031 Y
A9 N004 0 N027 N027 N027 N027 N025 N027 SCHMITT Vt=.5 Vh=10m Vhigh=0 Vlow=-10 Rout=1k Cout=1p
A10 N004 0 N027 N027 N027 N031 N027 N027 SCHMITT Vt=.5 Vh=10m Vhigh=10 Vlow=0 Rout=1k Cout=1p
G9 N027 0 N027 10 100m dir=1 vto=-1.15
G10 0 N027 9 N027 100m dir=1 vto=-.14
R12 INBPI 15 100
R13 INBMI 13 100
R14 8 INBPI 500
C27 7 9 12p Rpar=1T noiseless
R16 8 7 25
R15 INCMI INBMI 500
C17 6 4 12p Rpar=1T noiseless
C28 6 7 12p Rpar=1T noiseless
G1 0 N009 N011 0 1m
G2 0 N028 N030 0 1m
C8 8 9 .8p Rpar=100Meg noiseless
A15 0 N009 0 0 0 0 N008 0 OTA g=1m iout=32.8u Cout=50f Vlow=-1e308 Vhigh=1e308
A11 0 N028 0 0 0 0 N027 0 OTA g=1m iout=32.8u Cout=50f Vlow=-1e308 Vhigh=1e308
R18 12 11 2Meg noiseless
S4 N007 4 N004 0 swBias
D11 INAMI N007 DBIAS
D1 INAPI N007 DBIAS
S3 10 9 N004 0 swPow
S5 N026 9 N004 0 swBias
D2 INBPI N026 DBIAS
D4 INBMI N026 DBIAS
S1 1 12 N004 0 swPow
S6 N017 12 N004 0 swBias
D3 INCMI N017 DBIAS
D5 2 N017 DBIAS
C24 N009 0 60f Rpar=1k noiseless
C26 N028 0 60f Rpar=1k noiseless
G8 0 N011 N003 0 1m
C29 N011 0 60f Rpar=1k noiseless
G11 0 N030 N024 0 1m
C30 N030 0 60f Rpar=1k noiseless
A1 0 N002 N004 0 0 0 N003 0 OTA g=1m linear Cout=20f en=.85n+10p*freq**.26 Rout=1k Vlow=-64m Vhigh=64m
A2 0 N023 N004 0 0 0 N024 0 OTA g=1m linear Cout=20f en=.85n+10p*freq**.26 Rout=1k Vlow=-64m Vhigh=64m
.model Y D(Ron=100 Roff=1T Vfwd=.45 epsilon=.1 noiseless)
.model N VDMOS(Vto=-150m Kp=300m)
.model P VDMOS(Vto=150m Kp=300m pchan)
.model swPow SW(level=2 Ron=50 Roff=75.8k vt=.5 vh=-50m ilimit=28.9m noiseless)
.model swBias SW(Ron=10k Roff=100G vt=.5 vh=-50m noiseless)
.model DBIAS D(Ron=10k Roff=1G Vfwd=.6 ilimit=5u noiseless)
.model DC D(Ron=2k Roff=1G Vfwd=1 epsilon=.1 ilimit=374u noiseless)
.model DNL D(Ron=100 Roff=10k Vfwd=7 Vrev=4 epsilon=.5 revepsilon=.5 noiseless)
.ends LT1993-10
*
.SUBCKT 1993AMPA10 3 2 7 4 6 8
CG1 125 0 1.7E-10
CG2 128 0 800p
CG3 126 0 23n
CG4 129 0 1100p
DOUT1 25 26 DOUTP
DOUT2 26 25 DOUTN
DVL1 120 125 DVLIM
DVL2 120 0 DVLIM
EPWR1 117 0 VALUE={V(31)+V(25,26)-V(41,42)}
EPWR2 118 0 VALUE={V(30)+V(25,26)+V(41,42)}
ESHD1 42 0 VALUE={V(31)-10}
EVLIM1 30 0 VALUE={V(7)-1.25}
EVLIM2 31 0 VALUE={V(4)+0.45}
GG1 0 125 VALUE={0.02*TANH(V(23))}
GG2 0 128 127 0 6.2832
GG3 0 126 125 0 6.2832
GG4 0 129 128 0 6.2832
GGAIN 0 23 115 2 338
GINX 0 115 3 0 1
GOUT 0 25 VALUE={1E-3*TANH(V(24))}
GPWR 7 4 116 31 0.1
GSHD1 119 0 8 4 1
GVNOI1 0 115 121 0 1
GZP1 0 24 129 0 0.1
GZP2 0 127 126 0 0.1
IDUM1 121 0 0
IPWR1 0 116 -7m
IPWR2 7 4 175u
ISHD2 0 119 2
IVOS 0 115 2.5m
LZP1 123 0 3.5n
LZP2 122 0 10n
MOUT1 30 25 26 26 NOUT
MOUT1X 7 117 31 31 NOUT
MOUT2 31 25 26 26 POUT
MOUT2X 4 118 30 30 POUT
MSHD1 26 119 124 124 NSW
MSHD10 31 119 116 116 PSW
MSHD11 41 119 31 31 PSW
MSHD2 6 119 124 124 NSW
RA 23 0 0.1
RG1 125 0 1000
RG2 128 0 0.159155
RG3 126 0 0.159155
RG4 129 0 0.159155
RINX 115 0 1
ROUT1 30 25 2E4
ROUT2 25 31 2E4
RPWR 116 31 10
RSHD2 119 31 10
RSHD3 42 41 1k
RSHDNZ 6 26 1E8
RVNOI 121 0 140
RZP1 24 122 10
RZP2 127 123 10
RZP3 123 0 30
RZP4 122 0 35
.MODEL NOUT NMOS(KP=5 VTO=-150m)
.MODEL POUT PMOS(KP=5 VTO=150m)
.MODEL NOUTX NMOS(KP=5 VTO=0)
.MODEL POUTX PMOS(KP=5 VTO=0)
.MODEL PSW PMOS(KP=5 VTO=-1M)
.MODEL NSW NMOS(KP=5 VTO=1M)
.MODEL DOUTP D(KF=0 RS=0 IS=1.028E-7)
.MODEL DOUTN D(KF=0 RS=0 IS=1.028E-7)
.MODEL DVLIM D(BV=0.5 IS=1E-10 KF=0 RS=0 XTI=0)
.ENDS 1993AMPA10
*
.SUBCKT 1993AMPC 3 2 7 4 6 8
CG1 122 0 1E-9
CG2 124 0 1n
CG3 123 0 35n
CIN1 3 7 0.5p
CIN2 3 4 0.5p
DOUT1 25 26 DOUTP
DOUT2 26 25 DOUTN
DVL1 119 122 DVLIM
DVL2 119 0 DVLIM
EPWR1 116 0 VALUE={V(31)+V(25,26)-V(41,42)}
EPWR2 117 0 VALUE={V(30)+V(25,26)+V(41,42)}
ESHD1 42 0 VALUE={V(31)-10}
EVLIM1 30 0 VALUE={V(7)-1.1}
EVLIM2 31 0 VALUE={V(4)+0.7}
GG1 0 122 VALUE={0.5*TANH(V(23))}
GG2 0 124 123 0 6.2832
GG3 0 123 122 0 6.2832
GGAIN 0 23 115 2 0.77
GINX 0 115 3 0 1
GOUT 0 25 VALUE={1E-3*TANH(V(24))}
GSHD1 118 0 8 4 1
GZP1 0 24 124 0 0.1
IBIAS 3 0 10u
ISHD2 0 118 2
IVOS 0 115 5m
LZP1 120 0 20n
MOUT1 30 25 26 26 NOUT
MOUT1X 7 116 31 31 NOUT
MOUT2 31 25 26 26 POUT
MOUT2X 4 117 30 30 POUT
MSHD1 26 118 121 121 NSW
MSHD11 41 118 31 31 PSW
MSHD2 6 118 121 121 NSW
RA 23 0 0.1
RG1 122 0 1000
RG2 124 0 0.159155
RG3 123 0 0.159155
RIN1 3 7 2E6
RIN2 3 4 2E6
RINX 115 0 1
ROUT1 30 25 2E5
ROUT2 25 31 2E5
RSHD2 118 31 10
RSHD3 42 41 1k
RSHDNZ 6 26 1E8
RZP1 24 120 10
RZP2 120 0 90
.MODEL NOUT NMOS(KP=5 VTO=-10m)
.MODEL POUT PMOS(KP=5 VTO=10m)
.MODEL PSW PMOS(KP=5 VTO=-1M)
.MODEL NSW NMOS(KP=5 VTO=1M)
.MODEL DOUTP D(KF=0 RS=0 IS=1.028E-6)
.MODEL DOUTN D(KF=0 RS=0 IS=1.028E-6)
.MODEL DVLIM D(BV=0.5 IS=1E-10 KF=0 RS=0 XTI=0)
.ENDS 1993AMPC
*
.SUBCKT 1993AMPA4 3 2 7 4 6 8
CG1 125 0 5e-10
CG2 128 0 800p
CG3 126 0 25n
CG4 129 0 1100p
DOUT1 25 26 DOUTP
DOUT2 26 25 DOUTN
DVL1 120 125 DVLIM
DVL2 120 0 DVLIM
EPWR1 117 0 VALUE={V(31)+V(25,26)-V(41,42)}
EPWR2 118 0 VALUE={V(30)+V(25,26)+V(41,42)}
ESHD1 42 0 VALUE={V(31)-10}
EVLIM1 30 0 VALUE={V(7)-1.25}
EVLIM2 31 0 VALUE={V(4)+0.45}
GG1 0 125 VALUE={0.06*TANH(V(23))}
GG2 0 128 127 0 6.2832
GG3 0 126 125 0 6.2832
GG4 0 129 128 0 6.2832
GGAIN 0 23 115 2 248
GINX 0 115 3 0 1
GOUT 0 25 VALUE={1E-3*TANH(V(24))}
GPWR 7 4 116 31 0.1
GSHD1 119 0 8 4 1
GVNOI1 0 115 121 0 1
GZP1 0 24 129 0 0.1
GZP2 0 127 126 0 0.1
IDUM1 121 0 0
IPWR1 0 116 -7m
IPWR2 7 4 175u
ISHD2 0 119 2
IVOS 0 115 2.5m
LZP1 123 0 3.5n
LZP2 122 0 10n
MOUT1 30 25 26 26 NOUT
MOUT1X 7 117 31 31 NOUT
MOUT2 31 25 26 26 POUT
MOUT2X 4 118 30 30 POUT
MSHD1 26 119 124 124 NSW
MSHD10 31 119 116 116 PSW
MSHD11 41 119 31 31 PSW
MSHD2 6 119 124 124 NSW
RA 23 0 0.1
RG1 125 0 1000
RG2 128 0 0.159155
RG3 126 0 0.159155
RG4 129 0 0.159155
RINX 115 0 1
ROUT1 30 25 2E4
ROUT2 25 31 2E4
RPWR 116 31 10
RSHD2 119 31 10
RSHD3 42 41 1k
RSHDNZ 6 26 1E8
RVNOI 121 0 125
RZP1 24 122 10
RZP2 127 123 10
RZP3 123 0 30
RZP4 122 0 35
.MODEL NOUT NMOS(KP=5 VTO=-150m)
.MODEL POUT PMOS(KP=5 VTO=150m)
.MODEL NOUTX NMOS(KP=5 VTO=0)
.MODEL POUTX PMOS(KP=5 VTO=0)
.MODEL PSW PMOS(KP=5 VTO=-1M)
.MODEL NSW NMOS(KP=5 VTO=1M)