* Copyright © Linear Technology Corp. 04/07/2006. All rights reserved.
*
.subckt LT6411 1 2 3 4 5 6 7 8 9 10
B1 0 N004 I=10u*dnlim(uplim(V(7),V(3)-.9,.1), V(1)+.9, .1)+1n*V(7)
B2 N004 0 I=10u*dnlim(uplim(V(INM1),V(3)-.89,.1), V(1)+.89, .1)+1n*V(INM1)
C10 N004 0 .1f Rpar=100K noiseless
R2 3 N011 80Meg noiseless
R3 N011 1 80Meg noiseless
C6 3 7 .5p Rpar=1Meg noiseless
C7 7 1 .5p Rpar=1Meg noiseless
G1 0 N008 N011 0 1µ
C8 0 N008 .03f Rpar=1Meg noiseless
G2 0 N011 N010 0 100µ
C14 N011 N015 120f
A2 5 6 0 0 0 N006 0 0 SCHMITT Vt=1.3 Vh=10m tau=200n Vlow=0 Vhigh=1
M1 3 N007 4 4 N temp=27
M2 1 N016 4 4 P temp=27
D1 N007 4 Y
D9 4 N016 Y
A5 N006 0 N008 N008 N008 N008 N007 N008 SCHMITT Vt=.5 Vh=10m Vhigh=0 Vlow=-7 Rout=1k Cout=.5p
A7 N006 0 N008 N008 N008 N016 N008 N008 SCHMITT Vt=.5 Vh=10m Vhigh=7 Vlow=0 Rout=1k Cout=.5p
C3 3 4 1p
S2 3 1 N006 0 swPow
A3 0 N004 N006 0 0 0 N010 0 OTA g=10m linear Cout=.01f en=7.7n enk=2.5k Vhigh=1e308 rout=1k Vlow=-1e308
G3 N011 0 N011 3 100m dir=1 vto=-.78
G4 0 N011 1 N011 100m dir=1 vto=-.78
R1 4 INM1 370
R4 INM1 8 370
R5 3 5 46k
A4 8 7 0 0 0 0 0 0 OTA g=0 in=4p ink=2.3k
D3 N004 0 DSI temp=27
D4 0 N004 DSI temp=27
D6 N003 INM1 DSI2 temp=27
C1 INM1 7 .1p Rser=150 noiseless
I1 3 N009 7m
S1 N003 N009 N006 0 SW2
G5 N009 3 3 7 10m
C2 3 N009 .1p Rpar=100 noiseless
I2 N014 1 7m
G6 1 N014 7 1 10m
C9 N014 1 .1p Rpar=100 noiseless
D5 INM1 N005 DSI2 temp=27
S3 N014 N005 N006 0 SW2
G7 0 N015 1 0 .5m
G8 0 N015 3 0 .5m
C11 N015 0 200p Rpar=1K noiseless
B3 0 N022 I=10u*dnlim(uplim(V(10),V(3)-.9,.1), V(1)+.9, .1)+1n*V(10)
B4 N022 0 I=10u*dnlim(uplim(V(INM2),V(3)-.89,.1), V(1)+.89, .1)+1n*V(INM2)
C5 N022 0 .1f Rpar=100K noiseless
R10 3 N028 80Meg noiseless
R11 N028 1 80Meg noiseless
G9 0 N025 N028 0 1µ
C12 0 N025 .03f Rpar=1Meg noiseless
G10 0 N028 N027 0 100µ
C13 N028 N032 120f
M3 3 N024 2 2 N temp=27
M4 1 N033 2 2 P temp=27
D8 N024 2 Y
D10 2 N033 Y
A6 N006 0 N025 N025 N025 N025 N024 N025 SCHMITT Vt=.5 Vh=10m Vhigh=0 Vlow=-7 Rout=1k Cout=.5p
A8 N006 0 N025 N025 N025 N033 N025 N025 SCHMITT Vt=.5 Vh=10m Vhigh=7 Vlow=0 Rout=1k Cout=.5p
A9 0 N022 N006 0 0 0 N027 0 OTA g=10m linear Cout=.01f en=7.7n enk=2.5k Vhigh=1e308 rout=1k Vlow=-1e308
G11 N028 0 N028 3 100m dir=1 vto=-.78
G12 0 N028 1 N028 100m dir=1 vto=-.78
R12 2 INM2 370
R13 INM2 9 370
A10 9 10 0 0 0 0 0 0 OTA g=0 in=4p ink=2.3k
D11 N022 0 DSI temp=27
D12 0 N022 DSI temp=27
D13 N021 INM2 DSI2 temp=27
C17 INM2 10 .1p Rser=150 noiseless
I3 3 N026 7m
S5 N021 N026 N006 0 SW2
G13 N026 3 3 10 10m
C18 3 N026 .1p Rpar=100 noiseless
I4 N031 1 7m
G14 1 N031 10 1 10m
C19 N031 1 .1p Rpar=100 noiseless
D14 INM2 N023 DSI2 temp=27
S6 N031 N023 N006 0 SW2
G15 0 N032 1 0 .5m
G16 0 N032 3 0 .5m
C20 N032 0 200p Rpar=1K noiseless
C4 4 1 1p
C15 3 2 1p
C16 2 1 1p
S4 7 3 N006 0 SWB
S7 10 3 N006 0 SWB
.model Y D(Ron=100k Roff=1G Vfwd=1.5 epsilon=.2 noiseless)
.model N VDMOS(Vto=-150m Kp=50m)
.model P VDMOS(Vto=150m Kp=50m pchan)
.model swPow SW(level=2 Ron=100 Roff=1G vt=.5 vh=-50m ilimit=6.73m noiseless)
.model SWB SW(Ron=10k Roff=1g vt=.5 vh=-.3 ilimit=17u noiseless)
.model DSI D(Is=1e-15 TT=100p noiseless)
.model DGC D(Ron=10k Roff=1Meg Vfwd=3.2 Vrev=3.2 epsilon=100m revepsilon=100m noiseless)
.model DSI2 D(Is=1e-20 TT=300n cjo=1f noiseless)
.model SW2 SW(level=2 Ron=1 Roff=1G vt=.5 vh=-.3 ilimit=1m noiseless)
.ends LT6411
*
.subckt LT6553 1 2 3 4 5 6 7 8 9 10 11 12
B1 0 N004 I=10u*dnlim(uplim(V(3),V(10)-.9,.1), V(8)+.9, .1)+1n*V(3)
B2 N004 0 I=10u*dnlim(uplim(V(INMR),V(10)-.89,.1), V(8)+.89, .1)+1n*V(INMR)
C10 N004 0 .1f Rpar=100K noiseless
R2 10 N011 80Meg noiseless
R3 N011 8 80Meg noiseless
C6 10 3 .5p Rpar=10Meg noiseless
C7 3 8 .5p Rpar=10Meg noiseless
G1 0 N008 N011 0 1µ
C8 0 N008 .14f Rpar=1Meg noiseless
G2 0 N011 N010 0 100µ
C14 N011 N015 120f
A2 1 2 0 0 0 N006 0 0 SCHMITT Vt=1.5 Vh=10m trise=50n tfall=300n Vlow=0 Vhigh=1
M1 10 N007 12 12 N temp=27
M2 8 N016 12 12 P temp=27
D1 N007 12 YU
D9 12 N016 YD
A5 N006 0 N008 N008 N008 N008 N007 N008 SCHMITT Vt=.5 Vh=10m Vhigh=0 Vlow=-7 Rout=1k Cout=.5p
A7 N006 0 N008 N008 N008 N016 N008 N008 SCHMITT Vt=.5 Vh=10m Vhigh=7 Vlow=0 Rout=1k Cout=.5p
C3 10 12 1p
S2 10 8 N006 0 swPow
A3 0 N004 N006 0 0 0 N010 0 OTA g=10m linear Cout=.01f en=7.7n enk=2.5k Vhigh=4 rout=1k Vlow=-4
G3 N011 0 N011 10 100m dir=1 vto=-.72
G4 0 N011 8 N011 100m dir=1 vto=-.78
R1 12 INMR 370
R4 INMR 4 370
R5 10 1 49k
A4 4 3 0 0 0 0 0 0 OTA g=0 in=4p ink=2.3k
D3 N004 0 DSI temp=27
D4 0 N004 DSI temp=27
D6 N003 INMR DSI2 temp=27
C1 INMR 3 .1p Rser=150 noiseless
I1 10 N009 7m
S1 N003 N009 N006 0 SW2
G5 N009 10 10 3 10m
C2 10 N009 .1p Rpar=120 noiseless
I2 N014 8 7m
G6 8 N014 3 8 10m
C9 N014 8 .1p Rpar=120 noiseless
D5 INMR N005 DSI2 temp=27
S3 N014 N005 N006 0 SW2
G7 0 N015 8 0 .5m
G8 0 N015 10 0 .5m
C11 N015 0 200p Rpar=1K noiseless
C4 12 8 1p
S4 3 10 N006 0 SWB
R6 2 8 1Meg
B3 0 N021 I=10u*dnlim(uplim(V(5),V(10)-.9,.1), V(8)+.9, .1)+1n*V(5)
B4 N021 0 I=10u*dnlim(uplim(V(INMG),V(10)-.89,.1), V(8)+.89, .1)+1n*V(INMG)
C5 N021 0 .1f Rpar=100K noiseless
R7 10 N027 80Meg noiseless
R8 N027 8 80Meg noiseless
C12 10 5 .5p Rpar=10Meg noiseless
C13 5 8 .5p Rpar=10Meg noiseless
G9 0 N024 N027 0 1µ
C15 0 N024 .14f Rpar=1Meg noiseless
G10 0 N027 N026 0 100µ
C16 N027 N031 120f
M3 10 N023 11 11 N temp=27
M4 8 N032 11 11 P temp=27
D2 N023 11 YU
D7 11 N032 YD
A6 N006 0 N024 N024 N024 N024 N023 N024 SCHMITT Vt=.5 Vh=10m Vhigh=0 Vlow=-7 Rout=1k Cout=.5p
A8 N006 0 N024 N024 N024 N032 N024 N024 SCHMITT Vt=.5 Vh=10m Vhigh=7 Vlow=0 Rout=1k Cout=.5p
C17 10 11 1p
A9 0 N021 N006 0 0 0 N026 0 OTA g=10m linear Cout=.01f en=7.7n enk=2.5k Vhigh=4 rout=1k Vlow=-4
G11 N027 0 N027 10 100m dir=1 vto=-.72
G12 0 N027 8 N027 100m dir=1 vto=-.78
R10 11 INMG 370
R11 INMG 4 370
A10 4 5 0 0 0 0 0 0 OTA g=0 in=4p ink=2.3k
D8 N021 0 DSI temp=27
D10 0 N021 DSI temp=27
D11 N020 INMG DSI2 temp=27
C18 INMG 5 .1p Rser=150 noiseless
I3 10 N025 7m
S6 N020 N025 N006 0 SW2
G13 N025 10 10 5 10m
C19 10 N025 .1p Rpar=120 noiseless
I4 N030 8 7m
G14 8 N030 5 8 10m
C20 N030 8 .1p Rpar=120 noiseless
D12 INMG N022 DSI2 temp=27
S7 N030 N022 N006 0 SW2
G15 0 N031 8 0 .5m
G16 0 N031 10 0 .5m
C21 N031 0 200p Rpar=1K noiseless
C22 11 8 1p
S8 5 10 N006 0 SWB
B5 0 N035 I=10u*dnlim(uplim(V(7),V(10)-.9,.1), V(8)+.9, .1)+1n*V(7)
B6 N035 0 I=10u*dnlim(uplim(V(INMB),V(10)-.89,.1), V(8)+.89, .1)+1n*V(INMB)
C23 N035 0 .1f Rpar=100K noiseless
R12 10 N041 80Meg noiseless
R14 N041 8 80Meg noiseless
C24 10 7 .5p Rpar=1Meg noiseless
C25 7 8 .5p Rpar=1Meg noiseless
G17 0 N038 N041 0 1µ
C26 0 N038 .14f Rpar=1Meg noiseless
G18 0 N041 N040 0 100µ
C27 N041 N045 120f
M5 10 N037 9 9 N temp=27
M6 8 N046 9 9 P temp=27
D13 N037 9 YU
D14 9 N046 YD
A1 N006 0 N038 N038 N038 N038 N037 N038 SCHMITT Vt=.5 Vh=10m Vhigh=0 Vlow=-7 Rout=1k Cout=.5p
A11 N006 0 N038 N038 N038 N046 N038 N038 SCHMITT Vt=.5 Vh=10m Vhigh=7 Vlow=0 Rout=1k Cout=.5p
C28 10 9 1p
A12 0 N035 N006 0 0 0 N040 0 OTA g=10m linear Cout=.01f en=7.7n enk=2.5k Vhigh=4 rout=1k Vlow=-4
G19 N041 0 N041 10 100m dir=1 vto=-.72
G20 0 N041 8 N041 100m dir=1 vto=-.78
R15 9 INMB 370
R16 INMB 6 370
A13 6 7 0 0 0 0 0 0 OTA g=0 in=4p ink=2.3k
D15 N035 0 DSI temp=27
D16 0 N035 DSI temp=27
D17 N034 INMB DSI2 temp=27
C29 INMB 7 .1p Rser=150 noiseless
I5 10 N039 7m
S10 N034 N039 N006 0 SW2
G21 N039 10 10 7 10m
C30 10 N039 .1p Rpar=120 noiseless
I6 N044 8 7m
G22 8 N044 7 8 10m
C31 N044 8 .1p Rpar=120 noiseless
D18 INMB N036 DSI2 temp=27
S11 N044 N036 N006 0 SW2
G23 0 N045 8 0 .5m
G24 0 N045 10 0 .5m
C32 N045 0 200p Rpar=1K noiseless
C33 9 8 1p
S12 7 10 N006 0 SWB
.model YU D(Ron=100k Roff=1G Vfwd=1.59 epsilon=.2 noiseless)
.model YD D(Ron=100k Roff=1G Vfwd=1.6 epsilon=.3 noiseless)
.model N VDMOS(Vto=-150m Kp=50m)
.model P VDMOS(Vto=150m Kp=50m pchan)
.model swPow SW(level=2 Ron=100 Roff=1G vt=.5 vh=-50m ilimit=22.23m noiseless)
.model SWB SW(Ron=10k Roff=1g vt=.5 vh=-.3 ilimit=17u noiseless)
.model DSI D(Is=1e-15 TT=1p noiseless)
.model DGC D(Ron=10k Roff=1Meg Vfwd=3.2 Vrev=3.2 epsilon=100m revepsilon=100m noiseless)
.model DSI2 D(Is=1e-20 TT=300n cjo=1f noiseless)
.model SW2 SW(level=2 Ron=1 Roff=1G vt=.5 vh=-.3 ilimit=1m noiseless)
.ends LT6553
*
* Pinout (Same as IC): EN/ -IN +IN V- REF RG OUT V+
.SUBCKT LTC2053 1 2 3 4 5 6 7 8
.timedomain
RG1 24 0 1591550
CG1 24 0 1.4E-6
GG3 0 25 24 0 6.2832
RG3 25 0 0.159155
CG3 25 0 5E-6
DIN1 2 8 DIN
DIN2 3 8 DIN
DIN3 4 3 DIN
DIN4 4 2 DIN
RSHDN 8 1 1E7
GG1 0 24 VALUE={4E-3*TANH(V(23))}
MOUT1 8 26 27 27 NOUT
MOUT2 4 26 27 27 POUT
DOUT1 26 27 DOUTP
DOUT2 27 26 DOUTN
GOUT 0 26 VALUE={1m*TANH(V(25))}
ROUT1 8 26 2E5
ROUT2 26 4 2E5
RA 23 0 5
DVL1 29 24 DVLIM
DVL2 29 0 DVLIM
SIN1 3 11 71 76 SIN
SIN2 2 12 71 76 SIN
SIN3 11 21 72 76 SIN
SIN4 12 5 72 76 SIN
CIN1 11 12 1E-9
CIN2 21 5 1E-9
VSW1 71 0 PULSE(0 1 0 5u 5u 150u 330u)
VSW2 72 0 PULSE(0 1 165u 5u 5u 145u 330u)
EICML 75 0 VALUE={V(8)-1.6}
GGAIN 0 23 VALUE={(V(21,6)+1.58E-6*V(8,4))}
GPWR 8 4 VALUE={8E-6+7.5E-4*(0.5+0.5*TANH(10*(1.5-V(1,4))))}
DICML 21 75 DIN
SSD1 7 27 1 4 SSD
RINZ 6 4 5E9
* GB changed Rinz from 5e6 to 5e9 July 27, 2011
GVOS 0 23 28 0 -1E-5
RVOS 28 0 1 TC1=0.005
IVOS 0 28 1
CPAR1 12 4 1E-13
ESHD 76 0 VALUE={0.5+0.5*TANH(3*(V(1,4)-1.75))}
.MODEL SIN VSWITCH(RON=1k ROFF=1E11 VON=0.8 VOFF=0.2)
.MODEL SSD VSWITCH(RON=10 ROFF=1E11 VON=1.25 VOFF=1.75)
* GB changed Roff from 1e9 to 1e11 July 27, 2011
.MODEL NOUT NMOS(KP=1 VTO=10M)
.MODEL POUT PMOS(KP=1 VTO=-10M)
.MODEL DOUTP D(KF=0 RS=0 IS=1.6036E-8)
.MODEL DOUTN D(KF=0 RS=0 IS=1.6036E-8)
.MODEL DIN D(IS=1E-14 KF=0 RS=0)
.MODEL DVLIM D(BV=5 IS=1E-18 KF=0 RS=0 XTI=0)
.ENDS LTC2053
*
.subckt LTC6241 1 2 3 4 5
B1 0 N004 I=10u*dnlim(uplim(V(1),V(3)+.2,.1), V(4)-.2, .1)+1n*V(1)-178.3p
B2 N004 0 I=10u*dnlim(uplim(V(2),V(3)+.21,.1), V(4)-.21, .1)+1n*V(2)
C10 N004 0 1f Rpar=100K noiseless
M1 5 N011 4 4 NI temp=27
C2 3 5 1p Rpar=100Meg noiseless
D5 N011 4 DLIMN
M2 5 N007 3 3 PI temp=27
D8 3 N007 DLIMP
C3 3 N007 2p Rser=15Meg noiseless
A3 N008 N009 4 4 4 4 N007 4 OTA g=20n ref=-420m linear vlow=-1e308 vhigh=1e308
C11 5 4 1p Rpar=100Meg noiseless
C12 N011 4 2p Rser=15Meg noiseless
C16 N009 5 180f Rser=200k noiseless
A5 N006 0 N008 N008 N008 N008 N009 N008 OTA g=23u iout=2.9u Vhigh=1e308 Vlow=-1e308
G1 4 N011 N009 N008 20n
D9 N009 N008 DLIM
C7 3 1 1.75p Rser=100 Rpar=5T noiseless
C13 3 4 1000p Rpar=5k noiseless
C1 N005 0 350f Rpar=1Meg noiseless
G2 0 N008 4 0 .5m
G4 0 N008 3 0 .5m
C18 N008 0 200p Rpar=1K noiseless
G3 0 N006 N005 0 1m
L1 N006 0 114.5µ Cpar=149f Rser=1.08k Rpar=13.5k noiseless
D6 2 3 DESD temp=27
D7 4 2 DESD temp=27
D10 1 3 DESD temp=27
D11 4 1 DESD temp=27
D1 3 2 DBIAS
C8 N007 5 1f Rser=5k noiseless
C9 5 N011 1f Rser=5k noiseless
D2 3 4 DP
D3 3 1 DBIAS
A2 0 N004 0 0 0 0 N005 0 OTA g=1u linear en=6.8n enk=55 Vlow=-.132 Vhigh=.132
C4 3 2 1.75p Rser=100 Rpar=5T noiseless
C5 1 4 1.75p Rser=100 Rpar=5T noiseless
C6 2 4 1.75p Rser=100 Rpar=5T noiseless
A1 2 1 0 0 0 0 0 0 OTA g=0 in=.51f + 3.5e-19*freq**1.1
.model NI VDMOS(Vto=300m kp=35m lambda=.08)
.model PI VDMOS(Vto=-300m Kp=25m lambda=.08 pchan)
.model DLIM D(Ron=10k Roff=500Meg Vfwd=5 Vrev=5 epsilon=10m revepsilon=10m noiseless)
.model DESD D(Rs=100 Is=1e-15)
.model DLIMN D(Ron=100k Roff=100Meg Vfwd=1.5 Vrev=-280m epsilon=10m revepsilon=10m noiseless)
.model DLIMP D(Ron=100k Roff=100Meg Vfwd=1.8 Vrev=-280m  epsilon=10m revepsilon=10m noiseless)
.model DBIAS D(Ron=10g Roff=1T epsilon=.3 ilimit=.2p noiseless)
.model DP D(Ron=1k Roff=1g Vfwd=.5 epsilon=.1 ilimit=.545m noiseless)
.ends LTC6241
*
.subckt LT6220 1 2 3 4 5
A1 2 1 0 0 0 0 0 0 OTA g=0 in=.8p ink=38
B1 0 N004 I=10u*dnlim(uplim(V(1),V(3)+.2,.1), V(4)-.2, .1)+1n*V(1)-523p
B2 N004 0 I=10u*dnlim(uplim(V(2),V(3)+.21,.1), V(4)-.21, .1)+1n*V(2)
C10 N004 0 .1f Rpar=100K noiseless
D4 3 N011 DBIAZ
M1 5 N012 4 4 NI temp=27
C2 3 5 1p Rpar=1Meg noiseless
M2 5 N005 3 3 PI temp=27
C3 3 N005 20f Rser=200Meg noiseless
A3 N006 N009 4 4 4 4 N005 4 OTA g=20n ref=-.078 linear vlow=-1e308 vhigh=1e308
C11 5 4 1p Rpar=1Meg noiseless
C12 N012 4 1f Rser=700Meg noiseless
D10 1 N011 DBIA1
D11 2 N011 DBIA1
D6 N012 4 DLIMN1
A4 0 N004 0 0 0 0 N007 0 OTA g=1u linear en=10n enk=38.6 cout=68f Vlow=-1e308 Vhigh=1e308
C16 N009 5 110f
A5 N008 0 N006 N006 N006 N006 N009 N006 OTA g=52u iout=2.95u Rout=8Meg Vhigh=1e308 Vlow=-1e308
D12 1 3 DESD
D13 2 3 DESD
G1 4 N012 N009 N006 4n
C5 N011 4 20p Rpar=22.7k noiseless
C7 3 1 1p Rpar=1G noiseless
C13 3 4 1000p
G4 0 N008 N007 0 1m
D14 3 N005 DLIMP1
L1 N008 0 18.5µ Cpar=38f Rser=1.1k Rpar=11k noiseless
D15 1 2 DIN
D16 N011 1 DBIA2
D3 N011 2 DBIA2
D1 4 2 DESD
D2 4 1 DESD
C1 3 2 1p Rpar=1G noiseless
C6 1 4 1p Rpar=1G noiseless
C8 2 4 1p Rpar=1G noiseless
G2 0 N006 3 0 .5m
G3 0 N006 4 0 .5m
C14 N006 0 .2p Rpar=1K
D18 3 N005 DLIMP2
D19 N012 4 DLIMN2
D20 N007 0 DLIM
C4 N008 5 50f
.model DBIA1 D(Ron=100k Roff=1g  Vfwd=0  ilimit=260n epsilon=.1 noiseless)
.model DBIA2 D(Ron=1Meg Roff=10g Vfwd=-.1 epsilon=.1 ilimit=10n noiseless)
.model DBIAZ D(Ron=100 Roff=100G Vfwd=1 epsilon=10m noiseless)
.model DESD D(Ron=100 Roff=100T Vfwd=1 epsilon=50m noiseless)
.model DLIMN1 D(Ron=1Meg Roff=10g Vfwd=1 Vrev=340m epsilon=700m revepsilon=100m  noiseless)
.model DLIMN2 D(Ron=200Meg Roff=10g Vfwd=.6 epsilon=.6 noiseless)
.model DLIMP1 D(Ron=100k Roff=400Meg Vfwd=1 Vrev=340m epsilon=500m revepsilon=100m noiseless)
.model DLIMP2 D(Ron=50Meg Roff=10G Vfwd=.7 epsilon=.6 noiseless)
.model PI VDMOS(Vto=-300m kp=80m pchan)
.model NI VDMOS(Vto=300m kp=80m)
.model DLIM D(Ron=1k Roff=1Meg Vfwd=52m epsilon=10m Vrev=52m revepsilon=10m noiseless)
.model DIN D(Ron=1k Roff=100Meg Vfwd=1.5 Vrev=1.5 epsilon=100m revepsilon=100m noiseless)
.ends LT6220
*
.subckt LT6554 1 2 3 4 5 6 7 8 9 10
B1 0 N003 I=10u*dnlim(uplim(V(5),V(3)-.1,.1), V(4)+.1, .1)+1n*V(5)
B2 N003 0 I=10u*dnlim(uplim(V(INMR),V(3)-.09,.1), V(4)+.09, .1)+1n*V(INMR)
C10 N003 0 .1f Rpar=100K noiseless
R2 3 N010 80Meg noiseless
R3 N010 4 80Meg noiseless
C6 3 5 .5p Rpar=10Meg noiseless
C7 5 4 .5p Rpar=10Meg noiseless
G1 0 N007 N010 0 1µ
G2 0 N010 N009 0 100µ
C14 N010 N014 330f Rser=810 noiseless
A2 1 2 0 0 0 N005 0 0 SCHMITT Vt=1.5 Vh=10m trise=50n tfall=300n Vlow=0 Vhigh=1
M1 3 N006 8 8 N temp=27
M2 4 N015 8 8 P temp=27
D1 N006 8 YU
D9 8 N015 YD
A5 N005 0 N007 N007 N007 N007 N006 N007 SCHMITT Vt=.5 Vh=10m Vhigh=0 Vlow=-7 Rout=1k Cout=.5p
A7 N005 0 N007 N007 N007 N015 N007 N007 SCHMITT Vt=.5 Vh=10m Vhigh=7 Vlow=0 Rout=1k Cout=.5p
C3 3 8 .9p
S2 3 4 N005 0 swPow
A3 0 N003 N005 0 0 0 N009 0 OTA g=10m linear Cout=1f en=19.9n enk=1.24k Vhigh=1e308 rout=1k Vlow=-1e308
G3 N010 0 N010 3 500m dir=1 vto=-.71
G4 0 N010 4 N010 500m dir=1 vto=-.71
R1 8 INMR 480
R5 3 1 49k
A4 INMR 5 0 0 0 0 0 0 OTA g=0 in=3.5p ink=400
D3 N003 0 DSI temp=27
D4 0 N003 DSI temp=27
D6 N002 INMR DSI2 temp=27
C1 INMR 5 .1p Rser=150 noiseless
I1 3 N008 7m
S1 N002 N008 N005 0 SW2
G5 N008 3 3 5 10m
C2 3 N008 .1p Rpar=120 noiseless
I2 N013 4 7m
G6 4 N013 5 4 10m
C9 N013 4 .1p Rpar=120 noiseless
D5 INMR N004 DSI2 temp=27
S3 N013 N004 N005 0 SW2
G7 0 N014 4 0 .5m
G8 0 N014 3 0 .5m
C11 N014 0 200p Rpar=1K noiseless
C4 8 4 .9p
S4 5 3 N005 0 SWB
R6 2 4 1Meg
C12 8 N007 .25f Rser=400k noiseless
C5 N007 0 .139f Rpar=1Meg Rser=142.8k noiseless
B3 0 N020 I=10u*dnlim(uplim(V(6),V(3)-.1,.1), V(4)+.1, .1)+1n*V(6)
B4 N020 0 I=10u*dnlim(uplim(V(INMG),V(3)-.09,.1), V(4)+.09, .1)+1n*V(INMG)
C13 N020 0 .1f Rpar=100K noiseless
R8 3 N026 80Meg noiseless
R10 N026 4 80Meg noiseless
C15 3 6 .5p Rpar=10Meg noiseless
C16 6 4 .5p Rpar=10Meg noiseless
G9 0 N023 N026 0 1µ
G10 0 N026 N025 0 100µ
C17 N026 N030 330f Rser=810 noiseless
M3 3 N022 9 9 N temp=27
M4 4 N031 9 9 P temp=27
D2 N022 9 YU
D7 9 N031 YD
A6 N005 0 N023 N023 N023 N023 N022 N023 SCHMITT Vt=.5 Vh=10m Vhigh=0 Vlow=-7 Rout=1k Cout=.5p
A8 N005 0 N023 N023 N023 N031 N023 N023 SCHMITT Vt=.5 Vh=10m Vhigh=7 Vlow=0 Rout=1k Cout=.5p
C18 3 9 .9p
A9 0 N020 N005 0 0 0 N025 0 OTA g=10m linear Cout=1f en=19.9n enk=1.24k Vhigh=1e308 rout=1k Vlow=-1e308
G11 N026 0 N026 3 500m dir=1 vto=-.71
G12 0 N026 4 N026 500m dir=1 vto=-.71
R11 9 INMG 480
A10 INMG 6 0 0 0 0 0 0 OTA g=0 in=3.5p ink=400
D8 N020 0 DSI temp=27
D10 0 N020 DSI temp=27
D11 N019 INMG DSI2 temp=27
C19 INMG 6 .1p Rser=150 noiseless
I3 3 N024 7m
S6 N019 N024 N005 0 SW2
G13 N024 3 3 6 10m
C20 3 N024 .1p Rpar=120 noiseless
I4 N029 4 7m
G14 4 N029 6 4 10m
C21 N029 4 .1p Rpar=120 noiseless
D12 INMG N021 DSI2 temp=27
S7 N029 N021 N005 0 SW2
G15 0 N030 4 0 .5m
G16 0 N030 3 0 .5m
C22 N030 0 200p Rpar=1K noiseless
C23 9 4 .9p
S8 6 3 N005 0 SWB
C24 9 N023 .25f Rser=400k noiseless
B5 0 N033 I=10u*dnlim(uplim(V(7),V(3)-.1,.1), V(4)+.1, .1)+1n*V(7)
B6 N033 0 I=10u*dnlim(uplim(V(INMB),V(3)-.09,.1), V(4)+.09, .1)+1n*V(INMB)
C8 N033 0 .1f Rpar=100K noiseless
R12 3 N039 80Meg noiseless
R13 N039 4 80Meg noiseless
C26 3 7 .5p Rpar=10Meg noiseless
C27 7 4 .5p Rpar=10Meg noiseless
G17 0 N036 N039 0 1µ
G18 0 N039 N038 0 100µ
C28 N039 N043 330f Rser=810 noiseless
M5 3 N035 10 10 N temp=27
M6 4 N044 10 10 P temp=27
D13 N035 10 YU
D14 10 N044 YD
A1 N005 0 N036 N036 N036 N036 N035 N036 SCHMITT Vt=.5 Vh=10m Vhigh=0 Vlow=-7 Rout=1k Cout=.5p
A11 N005 0 N036 N036 N036 N044 N036 N036 SCHMITT Vt=.5 Vh=10m Vhigh=7 Vlow=0 Rout=1k Cout=.5p
C29 3 10 .9p
A12 0 N033 N005 0 0 0 N038 0 OTA g=10m linear Cout=1f en=19.9n enk=1.24k Vhigh=1e308 rout=1k Vlow=-1e308
G19 N039 0 N039 3 500m dir=1 vto=-.71
G20 0 N039 4 N039 500m dir=1 vto=-.71
R14 10 INMB 480
A13 INMB 7 0 0 0 0 0 0 OTA g=0 in=3.5p ink=400
D15 N033 0 DSI temp=27
D16 0 N033 DSI temp=27
D17 N032 INMB DSI2 temp=27
C30 INMB 7 .1p Rser=150 noiseless
I5 3 N037 7m
S5 N032 N037 N005 0 SW2
G21 N037 3 3 7 10m
C31 3 N037 .1p Rpar=120 noiseless
I6 N042 4 7m
G22 4 N042 7 4 10m
C32 N042 4 .1p Rpar=120 noiseless
D18 INMB N034 DSI2 temp=27
S9 N042 N034 N005 0 SW2
G23 0 N043 4 0 .5m
G24 0 N043 3 0 .5m
C33 N043 0 200p Rpar=1K noiseless
C34 10 4 .9p
S10 7 3 N005 0 SWB
C35 10 N036 .25f Rser=400k noiseless
C25 N023 0 .139f Rpar=1Meg Rser=142.8k noiseless
C36 N036 0 .139f Rpar=1Meg Rser=142.8k noiseless
.model YU D(Ron=100k Roff=1G Vfwd=1.56 epsilon=.2 noiseless)
.model YD D(Ron=100k Roff=1G Vfwd=1.6 epsilon=.3 noiseless)
.model N VDMOS(Vto=-150m Kp=50m)
.model P VDMOS(Vto=150m Kp=50m pchan)
.model swPow SW(level=2 Ron=100 Roff=1G vt=.5 vh=-50m ilimit=23.49m noiseless)
.model SWB SW(Ron=10k Roff=1g vt=.5 vh=-.3 ilimit=17u noiseless)
.model DSI D(Is=1e-19 TT=1p noiseless)
.model DGC D(Ron=10k Roff=1Meg Vfwd=3.2 Vrev=3.2 epsilon=100m revepsilon=100m noiseless)
.model DSI2 D(Is=1e-20 TT=100n cjo=1f noiseless)
.model SW2 SW(level=2 Ron=1 Roff=1G vt=.5 vh=-.3 ilimit=1m noiseless)
.ends LT6554
*
.subckt LTC1992-1 1 2 3 4 5 6 7 8
A1 IN-A IN+A 0 0 0 0 0 0 OTA g=0 in=1f
C5 3 IN-A 1.5p
C6 N006 0 50f Rpar=100K noiseless
G1 0 N010 N013 0 1m
M1 3 N005 4 4 N temp=27
M2 6 N005 4 4 P temp=27
C7 N005 0 2f
G4 0 N012 N004 0 200n
C8 N012 0 2f
M3 3 N012 5 5 N temp=27
M4 6 N012 5 5 P temp=27
G6 N012 0 N010 0 200n
D4 N012 5 Y
D5 5 N012 Y
D8 4 N005 Y
D9 N005 4 Y
G5 0 N005 N010 0 200n
G3 0 N005 N004 0 200n
R9 4 VCM 30k noiseless
R11 VCM 5 30k noiseless
B1 0 N006 I=10u*dnlim(uplim(V(IN+A),V(3)-1.2,.1), V(6)-.2, .1)+1n*V(IN+A)
B2 N006 0 I=10u*dnlim(uplim(V(IN-A),V(3)-1.19,.1), V(6)-.21, .1)+1n*V(IN-A)
C19 3 4 1p
C12 4 6 1p
C16 3 5 1p
C17 5 6 1p
D13 IN+A 6 DBIAS
D14 IN-A 6 DBIAS
A2 0 N007 0 0 0 0 N013 0 OTA g=10.1u cout=700f iout=10u Vlow=-1e308 Vhigh=1e308
R2 3 7 200k
R4 7 6 200k
C10 N013 N017 60p noiseless
A3 0 N006 0 0 0 0 N007 0 OTA g=1u cout=40f en=30.9n enk=285 linear Rout=1Meg Vlow=-1e308 Vhigh=1e308
C13 N010 0 1p Rpar=1k noiseless
R12 N013 0 500Meg noiseless
S1 N007 0 N016 0 swSlew
S2 0 N007 0 N016 swSlew
C18 N013 N016 10f
A5 N011 N017 N017 N017 N017 N017 N011 N017 OTA g=60u iout=1u Vlow=-1e308 Vhigh=1e308
R14 N011 N017 500k noiseless
C14 N016 0 10f Rpar=780k noiseless
R15 2 6 500Meg noiseless
B3 0 N003 I=10u*dnlim(uplim(V(2),V(3)-1.2,.1), V(6)+.4, .1)+1n*V(2)
C1 N003 0 500f Rpar=100K noiseless
B4 N003 0 I=10u*dnlim(uplim(V(VCM),V(3)-1.19,.1), V(6)+.39, .1)+1n*V(VCM)
D1 3 6 DPOW
G7 0 N011 4 5 1m
C9 N011 0 100f Rpar=500 noiseless
R7 3 N005 10Meg noiseless
R10 N005 6 10Meg noiseless
R13 N012 6 10Meg noiseless
R6 3 N012 10Meg noiseless
D3 6 8 DCLP
D2 6 1 DCLP
D6 1 3 DCLP
D7 1 3 DCLP
C2 IN-A 6 1.5p
C3 3 IN+A 1.5p
C4 IN+A 6 1.5p
R1 IN-A 1 30k
R3 IN+A 8 30k
R5 4 IN-A 30k
R8 5 IN+A 30k
G2 N013 0 N005 3 50m dir=1 vto=.19
G8 0 N013 6 N005 50m dir=1 vto=.10
G9 0 N013 N012 3 50m dir=1 vto=.19
G10 N013 0 6 N012 50m dir=1 vto=.10
A4 0 N003 0 0 0 0 N004 0 OTA G=18m Iout=900u en=30.9n enk=285 Cout=3n Rout=2.5Meg Vlow=-1e308 Vhigh=1e308
G11 N004 0 N004 3 50m dir=1 vto=3
G12 0 N004 6 N004 50m dir=1 vto=3
.model N VDMOS(Vto=-70m Kp=138m)
.model P VDMOS(Vto=70m Kp=138m pchan)
.model Y D(Ron=10K Roff=1T Vfwd=.6 epsilon=10m noiseless)
.model DBIAS D(Ron=5K ilimit=2p epsilon=.5 noiseless)
.model DPOW D(Ron=1k ilimit=60.8u epsilon=.1 noiseless)
.model DCLP D(Ron=500 Roff=1G vfwd=.8 epsilon=.1 noiseless)
.model swSlew SW(Ron=10k Roff=1G vt= 5m vh=-2m)
.ends LTC1992-1
*
.subckt LTC1992-10 1 2 3 4 5 6 7 8
A1 IN-A IN+A 0 0 0 0 0 0 OTA g=0 in=1f
C5 3 IN-A 1.5p
C6 N006 0 50f Rpar=100K noiseless
G1 0 N010 N013 0 1m
M1 3 N005 4 4 N temp=27
M2 6 N005 4 4 P temp=27
C7 N005 0 2f
G4 0 N012 N004 0 200n
C8 N012 0 2f
M3 3 N012 5 5 N temp=27
M4 6 N012 5 5 P temp=27
G6 N012 0 N010 0 200n
D4 N012 5 Y
D5 5 N012 Y
D8 4 N005 Y
D9 N005 4 Y
G5 0 N005 N010 0 200n
G3 0 N005 N004 0 200n
R9 4 VCM 30k noiseless
R11 VCM 5 30k noiseless
B1 0 N006 I=10u*dnlim(uplim(V(IN+A),V(3)-1.2,.1), V(6)-.2, .1)+1n*V(IN+A)
B2 N006 0 I=10u*dnlim(uplim(V(IN-A),V(3)-1.19,.1), V(6)-.21, .1)+1n*V(IN-A)
C19 3 4 1p
C12 4 6 1p
C16 3 5 1p
C17 5 6 1p
D13 IN+A 6 DBIAS
D14 IN-A 6 DBIAS
A2 0 N007 0 0 0 0 N013 0 OTA g=10.1u cout=700f iout=10u Vlow=-1e308 Vhigh=1e308
R2 3 7 200k
R4 7 6 200k
C10 N013 N017 60p noiseless
A3 0 N006 0 0 0 0 N007 0 OTA g=1u cout=40f en=30.9n enk=285 linear Rout=1Meg Vlow=-1e308 Vhigh=1e308
C13 N010 0 1p Rpar=1k noiseless
R12 N013 0 500Meg noiseless
S1 N007 0 N016 0 swSlew
S2 0 N007 0 N016 swSlew
C18 N013 N016 10f
A5 N011 N017 N017 N017 N017 N017 N011 N017 OTA g=60u iout=1u Vlow=-1e308 Vhigh=1e308
R14 N011 N017 500k noiseless
C14 N016 0 10f Rpar=780k noiseless
R15 2 6 500Meg noiseless
B3 0 N003 I=10u*dnlim(uplim(V(2),V(3)-1.2,.1), V(6)+.4, .1)+1n*V(2)
C1 N003 0 500f Rpar=100K noiseless
B4 N003 0 I=10u*dnlim(uplim(V(VCM),V(3)-1.19,.1), V(6)+.39, .1)+1n*V(VCM)
D1 3 6 DPOW
G7 0 N011 4 5 1m
C9 N011 0 100f Rpar=500 noiseless
R7 3 N005 10Meg noiseless
R10 N005 6 10Meg noiseless
R13 N012 6 10Meg noiseless
R6 3 N012 10Meg noiseless
D3 6 8 DCLP
D2 6 1 DCLP
D6 1 3 DCLP
D7 1 3 DCLP
C2 IN-A 6 1.5p
C3 3 IN+A 1.5p
C4 IN+A 6 1.5p
R1 IN-A 1 15k
R3 IN+A 8 15k
R5 4 IN-A 150k
R8 5 IN+A 150k
G2 N013 0 N005 3 50m dir=1 vto=.19
G8 0 N013 6 N005 50m dir=1 vto=.10
G9 0 N013 N012 3 50m dir=1 vto=.19
G10 N013 0 6 N012 50m dir=1 vto=.10
A4 0 N003 0 0 0 0 N004 0 OTA G=18m Iout=900u en=30.9n enk=285 Cout=3n Rout=2.5Meg Vlow=-1e308 Vhigh=1e308
G11 N004 0 N004 3 50m dir=1 vto=3
G12 0 N004 6 N004 50m dir=1 vto=3
.model N VDMOS(Vto=-70m Kp=138m)
.model P VDMOS(Vto=70m Kp=138m pchan)
.model Y D(Ron=10K Roff=1T Vfwd=.6 epsilon=10m noiseless)
.model DBIAS D(Ron=5K ilimit=2p epsilon=.5 noiseless)
.model DPOW D(Ron=1k ilimit=60.8u epsilon=.1 noiseless)
.model DCLP D(Ron=500 Roff=1G vfwd=.8 epsilon=.1 noiseless)
.model swSlew SW(Ron=10k Roff=1G vt= 5m vh=-2m)
.ends LTC1992-10
*
.subckt LTC1992 1 2 3 4 5 6 7 8
A1 1 8 0 0 0 0 0 0 OTA g=0 in=1f
C5 3 1 1.5p
C6 N008 0 50f Rpar=100K noiseless
G1 0 N011 N015 0 1m
M1 3 N007 4 4 N temp=27
M2 6 N007 4 4 P temp=27
C7 N007 0 2f
G4 0 N014 N006 0 200n
C8 N014 0 2f
M3 3 N014 5 5 N temp=27
M4 6 N014 5 5 P temp=27
G6 N014 0 N011 0 200n
D4 N014 5 Y
D5 5 N014 Y
D8 4 N007 Y
D9 N007 4 Y
G5 0 N007 N011 0 200n
G3 0 N007 N006 0 200n
R9 4 VCM 30k noiseless
R11 VCM 5 30k noiseless
B1 0 N008 I=10u*dnlim(uplim(V(8),V(3)-1.2,.1), V(6)-.2, .1)+1n*V(8)
B2 N008 0 I=10u*dnlim(uplim(V(1),V(3)-1.19,.1), V(6)-.21, .1)+1n*V(1)
C19 3 4 1p
C12 4 6 1p
C16 3 5 1p
C17 5 6 1p
D13 8 6 DBIAS
D14 1 6 DBIAS
A4 0 N005 0 0 0 0 N006 0 OTA G=18m Iout=900u en=30.9n enk=285 Cout=3n Rout=2.5Meg Vlow=-1e308 Vhigh=1e308
A2 0 N009 0 0 0 0 N015 0 OTA g=10.1u cout=700f iout=10u Vlow=-1e308 Vhigh=1e308
R2 3 7 200k
R4 7 6 200k
C10 N015 N019 60p noiseless
A3 0 N008 0 0 0 0 N009 0 OTA g=1u cout=40f en=30.9n enk=285 linear Rout=1Meg Vlow=-1e308 Vhigh=1e308
C13 N011 0 1p Rpar=1k noiseless
R12 N015 0 500Meg noiseless
S1 N009 0 N018 0 swSlew
S2 0 N009 0 N018 swSlew
C18 N015 N018 10f
A5 N012 N019 N019 N019 N019 N019 N012 N019 OTA g=60u iout=1u Vlow=-1e308 Vhigh=1e308
R14 N012 N019 500k noiseless
C14 N018 0 10f Rpar=780k noiseless
R15 2 6 500Meg noiseless
B3 0 N005 I=10u*dnlim(uplim(V(2),V(3)-1.2,.1), V(6)+.4, .1)+1n*V(2)
C1 N005 0 500f Rpar=100K noiseless
B4 N005 0 I=10u*dnlim(uplim(V(VCM),V(3)-1.19,.1), V(6)+.39, .1)+1n*V(VCM)
D1 3 6 DPOW
G7 0 N012 4 5 1m
C9 N012 0 100f Rpar=500 noiseless
R7 3 N007 10Meg noiseless
R10 N007 6 10Meg noiseless
R13 N014 6 10Meg noiseless
R6 3 N014 10Meg noiseless
D3 6 8 DCLP
D2 6 1 DCLP
D6 1 3 DCLP
D7 1 3 DCLP
C2 1 6 1.5p
C3 3 8 1.5p
C4 8 6 1.5p
G2 N015 0 N007 3 50m dir=1 vto=.19
G8 0 N015 6 N007 50m dir=1 vto=.10
G10 0 N015 N014 3 50m dir=1 vto=.19
G9 N015 0 6 N014 50m dir=1 vto=.10
G11 N006 0 N006 3 50m dir=1 vto=3
G12 0 N006 6 N006 50m dir=1 vto=3
.model N VDMOS(Vto=-70m Kp=138m)
.model P VDMOS(Vto=70m Kp=138m pchan)
.model Y D(Ron=10K Roff=1T Vfwd=.6 epsilon=10m noiseless)
.model DBIAS D(Ron=5K ilimit=2p epsilon=.5 noiseless)
.model DPOW D(Ron=1k ilimit=60.8u epsilon=.1 noiseless)
.model DCLP D(Ron=500 Roff=1G vfwd=.8 epsilon=.1 noiseless)
.model swSlew SW(Ron=10k Roff=1G vt= 5m vh=-2m)
.ends LTC1992
*
.subckt LTC1992-2 1 2 3 4 5 6 7 8
A1 IN-A IN+A 0 0 0 0 0 0 OTA g=0 in=1f
C5 3 IN-A 1.5p
C6 N006 0 50f Rpar=100K noiseless
G1 0 N010 N013 0 1m
M1 3 N005 4 4 N temp=27
M2 6 N005 4 4 P temp=27
C7 N005 0 2f
G4 0 N012 N004 0 200n
C8 N012 0 2f
M3 3 N012 5 5 N temp=27
M4 6 N012 5 5 P temp=27
G6 N012 0 N010 0 200n
D4 N012 5 Y
D5 5 N012 Y
D8 4 N005 Y
D9 N005 4 Y
G5 0 N005 N010 0 200n
G3 0 N005 N004 0 200n
R9 4 VCM 30k noiseless
R11 VCM 5 30k noiseless
B1 0 N006 I=10u*dnlim(uplim(V(IN+A),V(3)-1.2,.1), V(6)-.2, .1)+1n*V(IN+A)
B2 N006 0 I=10u*dnlim(uplim(V(IN-A),V(3)-1.19,.1), V(6)-.21, .1)+1n*V(IN-A)
C19 3 4 1p
C12 4 6 1p
C16 3 5 1p
C17 5 6 1p
D13 IN+A 6 DBIAS
D14 IN-A 6 DBIAS
A2 0 N007 0 0 0 0 N013 0 OTA g=10.1u cout=700f iout=10u Vlow=-1e308 Vhigh=1e308
R2 3 7 200k
R4 7 6 200k
C10 N013 N017 60p noiseless
A3 0 N006 0 0 0 0 N007 0 OTA g=1u cout=40f en=30.9n enk=285 linear Rout=1Meg Vlow=-1e308 Vhigh=1e308
C13 N010 0 1p Rpar=1k noiseless
R12 N013 0 500Meg noiseless
S1 N007 0 N016 0 swSlew
S2 0 N007 0 N016 swSlew
C18 N013 N016 10f
A5 N011 N017 N017 N017 N017 N017 N011 N017 OTA g=60u iout=1u Vlow=-1e308 Vhigh=1e308
R14 N011 N017 500k noiseless
C14 N016 0 10f Rpar=780k noiseless
R15 2 6 500Meg noiseless
B3 0 N003 I=10u*dnlim(uplim(V(2),V(3)-1.2,.1), V(6)+.4, .1)+1n*V(2)
C1 N003 0 500f Rpar=100K noiseless
B4 N003 0 I=10u*dnlim(uplim(V(VCM),V(3)-1.19,.1), V(6)+.39, .1)+1n*V(VCM)
D1 3 6 DPOW
G7 0 N011 4 5 1m
C9 N011 0 100f Rpar=500 noiseless
R7 3 N005 10Meg noiseless
R10 N005 6 10Meg noiseless
R13 N012 6 10Meg noiseless
R6 3 N012 10Meg noiseless
D3 6 8 DCLP
D2 6 1 DCLP
D6 1 3 DCLP
D7 1 3 DCLP
C2 IN-A 6 1.5p
C3 3 IN+A 1.5p
C4 IN+A 6 1.5p
R1 IN-A 1 30k
R3 IN+A 8 30k
R5 4 IN-A 60k
R8 5 IN+A 60k
G2 N013 0 N005 3 50m dir=1 vto=.19
G8 0 N013 6 N005 50m dir=1 vto=.10
G9 0 N013 N012 3 50m dir=1 vto=.19
G10 N013 0 6 N012 50m dir=1 vto=.10
A4 0 N003 0 0 0 0 N004 0 OTA G=18m Iout=900u en=30.9n enk=285 Cout=3n Rout=2.5Meg Vlow=-1e308 Vhigh=1e308
G11 N004 0 N004 3 50m dir=1 vto=3
G12 0 N004 6 N004 50m dir=1 vto=3
.model N VDMOS(Vto=-70m Kp=138m)
.model P VDMOS(Vto=70m Kp=138m pchan)
.model Y D(Ron=10K Roff=1T Vfwd=.6 epsilon=10m noiseless)
.model DBIAS D(Ron=5K ilimit=2p epsilon=.5 noiseless)
.model DPOW D(Ron=1k ilimit=60.8u epsilon=.1 noiseless)
.model DCLP D(Ron=500 Roff=1G vfwd=.8 epsilon=.1 noiseless)
.model swSlew SW(Ron=10k Roff=1G vt= 5m vh=-2m)
.ends LTC1992-2
*
.subckt LTC1992-5 1 2 3 4 5 6 7 8
A1 IN-A IN+A 0 0 0 0 0 0 OTA g=0 in=1f
C5 3 IN-A 1.5p
C6 N006 0 50f Rpar=100K noiseless
G1 0 N010 N013 0 1m
M1 3 N005 4 4 N temp=27
M2 6 N005 4 4 P temp=27
C7 N005 0 2f
G4 0 N012 N004 0 200n
C8 N012 0 2f
M3 3 N012 5 5 N temp=27
M4 6 N012 5 5 P temp=27
G6 N012 0 N010 0 200n
D4 N012 5 Y
D5 5 N012 Y
D8 4 N005 Y
D9 N005 4 Y
G5 0 N005 N010 0 200n
G3 0 N005 N004 0 200n
R9 4 VCM 30k noiseless
R11 VCM 5 30k noiseless
B1 0 N006 I=10u*dnlim(uplim(V(IN+A),V(3)-1.2,.1), V(6)-.2, .1)+1n*V(IN+A)
B2 N006 0 I=10u*dnlim(uplim(V(IN-A),V(3)-1.19,.1), V(6)-.21, .1)+1n*V(IN-A)
C19 3 4 1p
C12 4 6 1p
C16 3 5 1p
C17 5 6 1p
D13 IN+A 6 DBIAS
D14 IN-A 6 DBIAS
A2 0 N007 0 0 0 0 N013 0 OTA g=10.1u cout=700f iout=10u Vlow=-1e308 Vhigh=1e308
R2 3 7 200k
R4 7 6 200k
C10 N013 N017 60p noiseless
A3 0 N006 0 0 0 0 N007 0 OTA g=1u cout=40f en=30.9n enk=285 linear Rout=1Meg Vlow=-1e308 Vhigh=1e308
C13 N010 0 1p Rpar=1k noiseless
R12 N013 0 500Meg noiseless
S1 N007 0 N016 0 swSlew
S2 0 N007 0 N016 swSlew
C18 N013 N016 10f
A5 N011 N017 N017 N017 N017 N017 N011 N017 OTA g=60u iout=1u Vlow=-1e308 Vhigh=1e308
R14 N011 N017 500k noiseless
C14 N016 0 10f Rpar=780k noiseless
R15 2 6 500Meg noiseless
B3 0 N003 I=10u*dnlim(uplim(V(2),V(3)-1.2,.1), V(6)+.4, .1)+1n*V(2)
C1 N003 0 500f Rpar=100K noiseless
B4 N003 0 I=10u*dnlim(uplim(V(VCM),V(3)-1.19,.1), V(6)+.39, .1)+1n*V(VCM)
D1 3 6 DPOW
G7 0 N011 4 5 1m
C9 N011 0 100f Rpar=500 noiseless
R7 3 N005 10Meg noiseless
R10 N005 6 10Meg noiseless
R13 N012 6 10Meg noiseless
R6 3 N012 10Meg noiseless
D3 6 8 DCLP
D2 6 1 DCLP
D6 1 3 DCLP
D7 1 3 DCLP
C2 IN-A 6 1.5p
C3 3 IN+A 1.5p
C4 IN+A 6 1.5p
R1 IN-A 1 30k
R3 IN+A 8 30k
R5 4 IN-A 150k
R8 5 IN+A 150k
G2 N013 0 N005 3 50m dir=1 vto=.19
G8 0 N013 6 N005 50m dir=1 vto=.10
G9 0 N013 N012 3 50m dir=1 vto=.19
G10 N013 0 6 N012 50m dir=1 vto=.10
A4 0 N003 0 0 0 0 N004 0 OTA G=18m Iout=900u en=30.9n enk=285 Cout=3n Rout=2.5Meg Vlow=-1e308 Vhigh=1e308
G11 N004 0 N004 3 50m dir=1 vto=3
G12 0 N004 6 N004 50m dir=1 vto=3
.model N VDMOS(Vto=-70m Kp=138m)
.model P VDMOS(Vto=70m Kp=138m pchan)