* Copyright © Linear Technology Corp. 12/20/06. All rights reserved.

.subckt LT6000 1 2 3 4 5 6
A1 2 1 0 0 0 0 0 0 OTA g=0 in=24.7f ink=22
B1 0 X0 I=10u*dnlim(uplim(V(1),V(3)+.15,.1), V(4)-.15, .1)+1n*V(1)-90.33n
B2 X0 0 I=10u*dnlim(uplim(V(2),V(3)+16,.1), V(4)-.16, .1)+1n*V(2)
C10 X0 0 500f Rpar=100K noiseless
M1 5 N008 4 4 NI temp=27
C2 3 5 1p Rpar=1g noiseless
D5 N008 4 DLIMN1
M2 5 VP 3 3 PI temp=27
D8 3 VP DLIMP
C3 3 VP 10p Rser=400k noiseless
A3 N005 N006 4 4 4 4 VP 4 OTA g=200n ref=-1.453 linear vlow=-1e308 vhigh=1e308
C11 5 4 1p Rpar=1g noiseless
C12 N008 4 100f Rser=250k noiseless
D6 N008 4 DLIMN2
A4 0 X0 0 0 0 0 X1 0 OTA g=1m linear en=75n enk=.44 Vhigh=1e308 Vlow=-1e308
C16 N006 5 6p
A5 X1 0 N005 N005 N005 N005 N006 N005 OTA g=2.3u asym isource=130n isink=-90n Vhigh=1e308 Vlow=-1e308
D12 1 3 DPROT
D13 2 3 DPROT
G1 4 N008 N006 N005 14n
D9 N006 N005 DLIM
C14 VP 5 400f
B3 VP 4 I=2n*V(VP,5)/dnlim(V(3,4),2,.1)
C7 3 1 2.5p Rser=2k Rpar=7G noiseless
C13 3 4 1000p
C15 VP N008 1p Rser=250k noiseless
S1 N006 N005 0 N004 SHUT
S2 3 VP 0 N004 SHUT
S3 N008 4 0 N004 SHUT
C1 X1 0 100p Rpar=1k noiseless
C21 N004 0 12p
C17 3 6 100f Rpar=7Meg noiseless
G2 0 N005 4 0 .5m
G4 0 N005 3 0 .5m
C18 N005 0 200p Rpar=1K noiseless
C4 3 2 2.5p Rser=2k Rpar=7G noiseless
C6 1 4 2.5p Rser=2k Rpar=7G noiseless
C8 2 4 2.5p Rser=2k Rpar=7G noiseless
D1 2 1 DIN
S5 1 3 N004 0 SBIAS
S6 2 3 N004 0 SBIAS
S7 0 N004 N005 6 SHUTI
D2 4 6 DPROT
A6 4 3 0 0 0 0 N004 0 OTA g=60n iout=80n Vlow=-1e308 Vhigh=1e308
.model DIN D(Ron=1k Roff=25Meg Vfwd=1.5 epsilon=.1 Vrev=1.5 revepsilon=.1 noiseless)
.model DPROT D(Ron=1k Roff=24G Vfwd=1 epsilon=10m noiseless)
.model SBIAS SW(level=2 Ron=50Meg Roff=100G vt=0.5 vh=-.1 ilimit 2n vser=.6 )
.model SHUT SW(Ron=1 Roff=100G vt=-1 vh=-.3 noiseless)
.model SHUTI SW(Ron=100k Roff=20Meg vt=.2 vh=-50m noiseless)
.model NI VDMOS(Vto=300m kp=15m lambda=.01)
.model PI VDMOS(Vto=-300m Kp=30m lambda=.01 pchan is=0)
.model DLIM D(Ron=100k Roff=70Meg Vfwd=3 Vrev=1 epsilon=10m revepsilon=10m noiseless)
.model DSLIM D(Ron=100 Roff=1G Vfwd=1.5 Vrev=.1 epsilon=.1 revepsilon=.1 noiseless)
.model DLIMN1 D(Ron=200k Roff=415Meg Vfwd=1.2 Vrev=-330m epsilon=.1  noiseless)
.model DLIMN2 D(Ron=5Meg Roff=1G Vfwd=-20m epsilon=50m ilimit=19.4n noiseless)
.model DLIMP D(Ron=100k Roff=100Meg Vfwd=1 Vrev=-.3  epsilon=10m revepsilon=10m noiseless)
.ends LT6000
*
.subckt LT6002 1 2 3 4 5
A1 2 1 0 0 0 0 0 0 OTA g=0 in=24.7f ink=22
B1 0 X0 I=10u*dnlim(uplim(V(1),V(3)+.15,.1), V(4)-.15, .1)+1n*V(1)-90.33n
B2 X0 0 I=10u*dnlim(uplim(V(2),V(3)+16,.1), V(4)-.16, .1)+1n*V(2)
C10 X0 0 500f Rpar=100K noiseless
M1 5 N008 4 4 NI temp=27
C2 3 5 1p Rpar=1g noiseless
D5 N008 4 DLIMN1
M2 5 VP 3 3 PI temp=27
D8 3 VP DLIMP
C3 3 VP 10p Rser=400k noiseless
A3 N005 N006 4 4 4 4 VP 4 OTA g=200n ref=-1.453 linear vlow=-1e308 vhigh=1e308
C11 5 4 1p Rpar=1g noiseless
C12 N008 4 100f Rser=250k noiseless
D6 N008 4 DLIMN2
A4 0 X0 0 0 0 0 X1 0 OTA g=1m linear en=75n enk=.44 Vhigh=1e308 Vlow=-1e308
C16 N006 5 6p
A5 X1 0 N005 N005 N005 N005 N006 N005 OTA g=2.3u asym isource=130n isink=-90n Vhigh=1e308 Vlow=-1e308
D12 1 3 DPROT
D13 2 3 DPROT
G1 4 N008 N006 N005 14n
D9 N006 N005 DLIM
C14 VP 5 400f
B3 VP 4 I=2n*V(VP,5)/dnlim(V(3,4),2,.1)
C7 3 1 2.5p Rser=2k Rpar=7G noiseless
C13 3 4 1000p
C15 VP N008 1p Rser=250k noiseless
S1 N006 N005 0 N004 SHUT
S2 3 VP 0 N004 SHUT
S3 N008 4 0 N004 SHUT
C1 X1 0 100p Rpar=1k noiseless
C21 N004 0 12p Rpar=20Meg noiseless
G2 0 N005 4 0 .5m
G4 0 N005 3 0 .5m
C18 N005 0 200p Rpar=1K noiseless
C4 3 2 2.5p Rser=2k Rpar=7G noiseless
C6 1 4 2.5p Rser=2k Rpar=7G noiseless
C8 2 4 2.5p Rser=2k Rpar=7G noiseless
D1 2 1 DIN
S5 1 3 N004 0 SBIAS
S6 2 3 N004 0 SBIAS
D2 4 3 DPROT
A6 4 3 0 0 0 0 N004 0 OTA g=60n iout=80n Vlow=-1e308 Vhigh=1e308
.model DIN D(Ron=1k Roff=25Meg Vfwd=1.5 epsilon=.1 Vrev=1.5 revepsilon=.1 noiseless)
.model DPROT D(Ron=1k Roff=24G Vfwd=1 epsilon=10m noiseless)
.model SBIAS SW(level=2 Ron=50Meg Roff=100G vt=0.5 vh=-.1 ilimit 2n vser=.6 )
.model SHUT SW(Ron=1 Roff=100G vt=-1 vh=-.3 noiseless)
.model NI VDMOS(Vto=300m kp=15m lambda=.01)
.model PI VDMOS(Vto=-300m Kp=30m lambda=.01 pchan is=0)
.model DLIM D(Ron=100k Roff=70Meg Vfwd=3 Vrev=1 epsilon=10m revepsilon=10m noiseless)
.model DSLIM D(Ron=100 Roff=1G Vfwd=1.5 Vrev=.1 epsilon=.1 revepsilon=.1 noiseless)
.model DLIMN1 D(Ron=200k Roff=415Meg Vfwd=1.2 Vrev=-330m epsilon=.1  noiseless)
.model DLIMN2 D(Ron=5Meg Roff=1G Vfwd=-20m epsilon=50m ilimit=19.4n noiseless)
.model DLIMP D(Ron=100k Roff=100Meg Vfwd=1 Vrev=-.3  epsilon=10m revepsilon=10m noiseless)
.ends LT6002
*
.subckt LT6003 1 2 3 4 5
A1 2 1 0 0 0 0 0 0 OTA g=0 in=11.3f ink=12.8
B1 0 X0 I=10u*dnlim(uplim(V(1),V(3)+.15,.1), V(4)-.15, .1)+1n*V(1)-1.89n
B2 X0 0 I=10u*dnlim(uplim(V(2),V(3)+16,.1), V(4)-.16, .1)+1n*V(2)
C10 X0 0 500f Rpar=100K noiseless
M1 5 N008 4 4 NI temp=27
C2 3 5 1p Rpar=10G noiseless
D5 N008 4 DLIMN1
M2 5 VP 3 3 PI temp=27
C3 3 VP 70p Rser=100k noiseless
C11 5 4 1p Rpar=10G noiseless
C12 N008 4 1p Rser=250k noiseless
A4 0 X0 0 0 0 0 N004 0 OTA g=1u linear en=324.6n enk=.23 Vhigh=1e308 Vlow=-1e308
C16 N006 5 220p
A5 N004 0 N005 N005 N005 N005 N006 N005 OTA g=4u iout=.29u Vhigh=1e308 Vlow=-1e308
G1 4 N008 N006 N005 10n
D9 N006 N005 DLIM
B3 VP 4 I=2n*V(VP,5)/dnlim(V(3,4),1.7,.1)
C7 3 1 3p Rpar=4T noiseless
C13 3 4 1000p
C1 N004 0 60p Rpar=1Meg noiseless
G2 0 N005 4 0 .5m
G4 0 N005 3 0 .5m
C18 N005 0 500p Rpar=1k noiseless
D2 N008 4 DLIMN2
C4 3 2 3p Rpar=4T noiseless
C5 1 4 3p Rpar=4T noiseless
C6 2 4 3p Rpar=4T noiseless
R3 2 1 10G noiseless
D1 2 4 DBIAS
D3 1 4 DBIAS
A2 N005 N006 4 4 4 4 VP 4 OTA g=350n ref=-.057 linear vlow=-1e308 vhigh=1e308
D4 3 VP DLIMP1
D6 3 VP DLIMP2
D7 3 4 DP
C8 VP 5 400f
.model DLIMN1 D(Ron=20k Roff=1g Vfwd=1.2 Vrev=-280m epsilon=.1  noiseless)
.model DLIMN2 D(Ron=600Meg Roff=2G Vfwd=200m epsilon=5m ilimit=150p noiseless)
.model DLIMP1 D(Ron=100k Roff=500Meg Vfwd=1 Vrev=-305m  epsilon=10m revepsilon=10m noiseless)
.model DLIMP2 D(Ron=100Meg Roff=10g Vfwd=100m epsilon=10m ilimit=2.5n noiseless)
.model DP D(Ron=10k  Roff=1G Vfwd=.7 epsilon=.1 ilimit=584n noiseless)
.model DBIAS D(Ron=10G Roff=4T epsilon=.3 ilimit=5p noiseless)
.model NI VDMOS(Vto=300m kp=20m)
.model PI VDMOS(Vto=-300m Kp=20m pchan)
.model DLIM D(Ron=100k Roff=70Meg Vfwd=4 Vrev=2.5 epsilon=10m revepsilon=10m noiseless)
.ends LT6003
*
.subckt LT6402-12 1 2 3 4 5 6 7 8 9 10 11 12 13 14 15 16
C1 INAMI INAPI 1f Rpar=100Meg noiseless
B1 0 N002 I=10u*dnlim(uplim(V(INAPI),V(3)+.2,.1), V(4)-.2, .1)+1n*V(INAPI)
B2 N002 0 I=10u*dnlim(uplim(V(INAMI),V(3)+.21,.1), V(4)-.21, .1)+1n*V(INAMI)
C3 N002 0 .1f Rpar=100K noiseless
R5 3 N009 100Meg noiseless
R6 N009 4 100Meg noiseless
M1 3 N007 5 5 N temp=27
M2 4 N012 5 5 P temp=27
C12 3 5 .4p
D6 N007 5 Y
D7 5 N012 Y
A3 N006 0 N009 N009 N009 N009 N007 N009 SCHMITT Vt=.5 Vh=10m Vhigh=0 Vlow=-10 Rout=1k Cout=1p
A4 N006 0 N009 N009 N009 N012 N009 N009 SCHMITT Vt=.5 Vh=10m Vhigh=10 Vlow=0 Rout=1k Cout=1p
C13 5 4 .4p Rpar=100Meg noiseless
G3 N009 0 N009 3 100m dir=1 vto=-1.15
G4 0 N009 4 N009 100m dir=1 vto=0.01
R2 INAMI 14 100
R3 INAPI 16 100
C4 INCMI 2 1f Rpar=100Meg noiseless
B3 0 N015 I=10u*dnlim(uplim(V(2),V(1)-1.3,.1), V(12)+1, .1)+1n*V(2)
B4 N015 0 I=10u*dnlim(uplim(V(INCMI),V(1)-1.29,.1), V(12)+.99, .1)+1n*V(INCMI)
C9 1 INCMI .15p Rpar=20Meg noiseless
C10 N015 0 1f Rpar=100K noiseless
R7 1 N016 100Meg noiseless
R8 N016 12 100Meg noiseless
C11 INCMI 12 .15p Rpar=20Meg noiseless
C14 1 2 .15p Rpar=20Meg noiseless
C15 2 12 .15p Rpar=20Meg noiseless
A7 0 N015 N006 0 0 0 N016 0 OTA g=1m iout=300u Cout=1.32p en=2n Vhigh=1e308 Vlow=-1e308
G5 N016 0 N016 1 100m dir=1 vto=-1
G6 0 N016 12 N016 100m dir=1 vto=0
S2 3 4 N006 0 swPow
R1 INAPI INCMI 200
A8 11 12 0 0 0 N006 0 0 SCHMITT Vt=.8 Vh=10m trise=40n tfall=500n Vlow=0 Vhigh=1 td=70n
R9 5 6 50
C18 INBPI INBMI .1p Rpar=100Meg noiseless
B5 0 N022 I=10u*dnlim(uplim(V(INBMI),V(3)+.2,.1), V(4)-.2, .1)+1n*V(INBMI)
B6 N022 0 I=10u*dnlim(uplim(V(INBPI),V(3)+.21,.1), V(4)-.21, .1)+1n*V(INBPI)
C20 N022 0 .1f Rpar=100K noiseless
R10 10 N027 100Meg noiseless
R11 N027 9 100Meg noiseless
M3 10 N026 8 8 N temp=27
M4 9 N029 8 8 P temp=27
C25 10 8 .4p
D9 N026 8 Y
D10 8 N029 Y
A9 N006 0 N027 N027 N027 N027 N026 N027 SCHMITT Vt=.5 Vh=10m Vhigh=0 Vlow=-10 Rout=1k Cout=1p
A10 N006 0 N027 N027 N027 N029 N027 N027 SCHMITT Vt=.5 Vh=10m Vhigh=10 Vlow=0 Rout=1k Cout=1p
G9 N027 0 N027 10 100m dir=1 vto=-1.15
G10 0 N027 9 N027 100m dir=1 vto=0.01
R12 INBPI 15 100
R13 INBMI 13 100
C27 7 9 14p Rpar=1T noiseless
R16 8 7 50
R15 INCMI INBMI 200
C17 6 4 14p Rpar=1T noiseless
C28 6 7 14p Rpar=1T noiseless
C8 8 9 .4p Rpar=100Meg noiseless
A15 0 N004 0 0 0 0 N009 0 OTA g=1m iout=25u Cout=110f Vlow=-1e308 Vhigh=1e308
A11 0 N024 0 0 0 0 N027 0 OTA g=1m iout=25u Cout=110f Vlow=-1e308 Vhigh=1e308
R18 12 11 5Meg noiseless
S3 10 9 N006 0 swPow
S1 1 12 N006 0 swPow
S6 2 12 N006 0 swBias
G1 0 N003 N005 0 1m
C24 N003 0 110f Rpar=1k noiseless
G8 0 N004 N003 0 1m
C26 N004 0 110f Rpar=1k noiseless
C2 3 INAMI .15p Rpar=20Meg Rser=2k noiseless
C32 14 4 .5p Rser=5k noiseless
C5 INAMI 4 .15p Rpar=20Meg Rser=2k noiseless
C6 3 INAPI .15p Rpar=20Meg Rser=2k noiseless
C7 INAPI 4 .15p Rpar=20Meg Rser=2k noiseless
C31 16 4 .5p Rser=5k noiseless
C33 15 9 .5p Rser=5k noiseless
C34 13 9 .5p Rser=5k noiseless
C19 10 INBPI .15p Rpar=20Meg Rser=2k noiseless
C21 10 INBMI .15p Rpar=20Meg Rser=2k noiseless
C22 INBPI 9 .15p Rpar=20Meg Rser=2k noiseless
C23 INBMI 9 .15p Rpar=20Meg Rser=2k noiseless
R4 5 INAMI 200
R14 8 INBPI 200
C16 N019 INCMI 200f Rpar=10 noiseless
G2 0 N023 N025 0 1m
C29 N023 0 110f Rpar=1k noiseless
G11 0 N024 N023 0 1m
C30 N024 0 110f Rpar=1k noiseless
G7 N019 INCMI N016 12 100m
S4 12 N019 N006 0 swShut
C35 N019 12 1p
A1 0 N002 N006 0 0 0 N005 0 OTA g=1m linear en=2.1n+freq**2.52/(1.6e29+2.8e11*(freq-2e8)**2.2) Rout=1k Cout=150f Vlow=-64m Vhigh=64m
A2 0 N022 N006 0 0 0 N025 0 OTA g=1m linear en=2.1n+freq**2.52/(1.6e29+2.8e11*(freq-2e8)**2.2) Rout=1k Cout=150f Vlow=-64m Vhigh=64m
.model Y D(Ron=100 Roff=1T Vfwd=.7 epsilon=.1 noiseless)
.model N VDMOS(Vto=-150m Kp=100m)
.model P VDMOS(Vto=150m Kp=100m pchan)
.model swPow SW(level=2 Ron=50 Roff=76.5k vt=.5 vh=-50m ilimit=9.25m noiseless)
.model swBias SW(level=2 Ron=10k Roff=100G vt=.5 vh=-50m ilimit=5u noiseless)
.model swShut SW(level=2 Ron=1 Roff=100Meg vt=.5 vh=-.1 noiseless)
.ends LT6402-12
*
.subckt LT6402-20 1 2 3 4 5 6 7 8 9 10 11 12 13 14 15 16
C1 INAMI INAPI 1f Rpar=100Meg noiseless
B1 0 N002 I=10u*dnlim(uplim(V(INAPI),V(3)+.2,.1), V(4)-.2, .1)+1n*V(INAPI)
B2 N002 0 I=10u*dnlim(uplim(V(INAMI),V(3)+.21,.1), V(4)-.21, .1)+1n*V(INAMI)
C3 N002 0 .1f Rpar=100K noiseless
R5 3 N009 100Meg noiseless
R6 N009 4 100Meg noiseless
M1 3 N007 5 5 N temp=27
M2 4 N012 5 5 P temp=27
C12 3 5 .4p
D6 N007 5 Y
D7 5 N012 Y
A3 N006 0 N009 N009 N009 N009 N007 N009 SCHMITT Vt=.5 Vh=10m Vhigh=0 Vlow=-10 Rout=1k Cout=1p
A4 N006 0 N009 N009 N009 N012 N009 N009 SCHMITT Vt=.5 Vh=10m Vhigh=10 Vlow=0 Rout=1k Cout=1p
C13 5 4 .4p Rpar=100Meg noiseless
G3 N009 0 N009 3 100m dir=1 vto=-1.15
G4 0 N009 4 N009 100m dir=1 vto=0.01
R2 INAMI 14 100
R3 INAPI 16 100
C4 INCMI 2 1f Rpar=100Meg noiseless
B3 0 N015 I=10u*dnlim(uplim(V(2),V(1)-1.3,.1), V(12)+1, .1)+1n*V(2)
B4 N015 0 I=10u*dnlim(uplim(V(INCMI),V(1)-1.29,.1), V(12)+.99, .1)+1n*V(INCMI)
C9 1 INCMI .15p Rpar=20Meg noiseless
C10 N015 0 1f Rpar=100K noiseless
R7 1 N016 100Meg noiseless
R8 N016 12 100Meg noiseless
C11 INCMI 12 .15p Rpar=20Meg noiseless
C14 1 2 .15p Rpar=20Meg noiseless
C15 2 12 .15p Rpar=20Meg noiseless
A7 0 N015 N006 0 0 0 N016 0 OTA g=1m iout=300u Cout=1.32p en=2n Vhigh=1e308 Vlow=-1e308
G5 N016 0 N016 1 100m dir=1 vto=-1
G6 0 N016 12 N016 100m dir=1 vto=0
S2 3 4 N006 0 swPow
R1 INAPI INCMI 500
A8 11 12 0 0 0 N006 0 0 SCHMITT Vt=.8 Vh=10m trise=40n tfall=500n Vlow=0 Vhigh=1 td=70n
R9 5 6 50
C18 INBPI INBMI .1p Rpar=100Meg noiseless
B5 0 N022 I=10u*dnlim(uplim(V(INBMI),V(3)+.2,.1), V(4)-.2, .1)+1n*V(INBMI)
B6 N022 0 I=10u*dnlim(uplim(V(INBPI),V(3)+.21,.1), V(4)-.21, .1)+1n*V(INBPI)
C20 N022 0 .1f Rpar=100K noiseless
R10 10 N027 100Meg noiseless
R11 N027 9 100Meg noiseless
M3 10 N026 8 8 N temp=27
M4 9 N029 8 8 P temp=27
C25 10 8 .4p
D9 N026 8 Y
D10 8 N029 Y
A9 N006 0 N027 N027 N027 N027 N026 N027 SCHMITT Vt=.5 Vh=10m Vhigh=0 Vlow=-10 Rout=1k Cout=1p
A10 N006 0 N027 N027 N027 N029 N027 N027 SCHMITT Vt=.5 Vh=10m Vhigh=10 Vlow=0 Rout=1k Cout=1p
G9 N027 0 N027 10 100m dir=1 vto=-1.15
G10 0 N027 9 N027 100m dir=1 vto=0.01
R12 INBPI 15 100
R13 INBMI 13 100
C27 7 9 14p Rpar=1T noiseless
R16 8 7 50
R15 INCMI INBMI 500
C17 6 4 14p Rpar=1T noiseless
C28 6 7 14p Rpar=1T noiseless
C8 8 9 .4p Rpar=100Meg noiseless
A15 0 N004 0 0 0 0 N009 0 OTA g=1m iout=13u Cout=55f Vlow=-1e308 Vhigh=1e308
A11 0 N024 0 0 0 0 N027 0 OTA g=1m iout=13u Cout=55f Vlow=-1e308 Vhigh=1e308
R18 12 11 5Meg noiseless
S3 10 9 N006 0 swPow
S1 1 12 N006 0 swPow
S6 2 12 N006 0 swBias
G1 0 N003 N005 0 1m
C24 N003 0 110f Rpar=1k noiseless
G8 0 N004 N003 0 1m
C26 N004 0 110f Rpar=1k noiseless
C2 3 INAMI .15p Rpar=20Meg Rser=2k noiseless
C32 14 4 .5p Rser=5k noiseless
C5 INAMI 4 .15p Rpar=20Meg Rser=2k noiseless
C6 3 INAPI .15p Rpar=20Meg Rser=2k noiseless
C7 INAPI 4 .15p Rpar=20Meg Rser=2k noiseless
C31 16 4 .5p Rser=5k noiseless
C33 15 9 .5p Rser=5k noiseless
C34 13 9 .5p Rser=5k noiseless
C19 10 INBPI .15p Rpar=20Meg Rser=2k noiseless
C21 10 INBMI .15p Rpar=20Meg Rser=2k noiseless
C22 INBPI 9 .15p Rpar=20Meg Rser=2k noiseless
C23 INBMI 9 .15p Rpar=20Meg Rser=2k noiseless
R4 5 INAMI 500
R14 8 INBPI 500
C16 N019 INCMI 200f Rpar=10 noiseless
G2 0 N023 N025 0 1m
C29 N023 0 110f Rpar=1k noiseless
G11 0 N024 N023 0 1m
C30 N024 0 110f Rpar=1k noiseless
G7 N019 INCMI N016 12 100m
S4 12 N019 N006 0 swShut
C35 N019 12 1p
A1 0 N002 N006 0 0 0 N005 0 OTA g=1m linear en=1.7n+freq**2.52/(1.8e29+4e11*(freq-2e8)**2.2) Rout=1k Cout=150f Vlow=-64m Vhigh=64m
A2 0 N022 N006 0 0 0 N025 0 OTA g=1m linear en=1.7n+freq**2.52/(1.8e29+4e11*(freq-2e8)**2.2) Rout=1k Cout=150f Vlow=-64m Vhigh=64m
.model Y D(Ron=100 Roff=1T Vfwd=.7 epsilon=.1 noiseless)
.model N VDMOS(Vto=-150m Kp=100m)
.model P VDMOS(Vto=150m Kp=100m pchan)
.model swPow SW(level=2 Ron=50 Roff=76.5k vt=.5 vh=-50m ilimit=9.25m noiseless)
.model swBias SW(level=2 Ron=10k Roff=100G vt=.5 vh=-50m ilimit=5u noiseless)
.model swShut SW(level=2 Ron=1 Roff=100Meg vt=.5 vh=-.1 noiseless)
.ends LT6402-20
*
.subckt LT6402-6 1 2 3 4 5 6 7 8 9 10 11 12 13 14 15 16
C1 INAMI INAPI 1f Rpar=100Meg noiseless
B1 0 N002 I=10u*dnlim(uplim(V(INAPI),V(3)+.2,.1), V(4)-.2, .1)+1n*V(INAPI)
B2 N002 0 I=10u*dnlim(uplim(V(INAMI),V(3)+.21,.1), V(4)-.21, .1)+1n*V(INAMI)
C3 N002 0 .1f Rpar=100K noiseless
R5 3 N009 100Meg noiseless
R6 N009 4 100Meg noiseless
M1 3 N007 5 5 N temp=27
M2 4 N012 5 5 P temp=27
C12 3 5 .4p
D6 N007 5 Y
D7 5 N012 Y
A3 N006 0 N009 N009 N009 N009 N007 N009 SCHMITT Vt=.5 Vh=10m Vhigh=0 Vlow=-10 Rout=1k Cout=1p
A4 N006 0 N009 N009 N009 N012 N009 N009 SCHMITT Vt=.5 Vh=10m Vhigh=10 Vlow=0 Rout=1k Cout=1p
C13 5 4 .4p Rpar=100Meg noiseless
G3 N009 0 N009 3 100m dir=1 vto=-1.15
G4 0 N009 4 N009 100m dir=1 vto=0.01
R2 INAMI 14 200
R3 INAPI 16 200
C4 INCMI 2 1f Rpar=100Meg noiseless
B3 0 N015 I=10u*dnlim(uplim(V(2),V(1)-1.3,.1), V(12)+1, .1)+1n*V(2)
B4 N015 0 I=10u*dnlim(uplim(V(INCMI),V(1)-1.29,.1), V(12)+.99, .1)+1n*V(INCMI)
C9 1 INCMI .15p Rpar=20Meg noiseless
C10 N015 0 1f Rpar=100K noiseless
R7 1 N016 100Meg noiseless
R8 N016 12 100Meg noiseless
C11 INCMI 12 .15p Rpar=20Meg noiseless
C14 1 2 .15p Rpar=20Meg noiseless
C15 2 12 .15p Rpar=20Meg noiseless
A7 0 N015 N006 0 0 0 N016 0 OTA g=1m iout=300u Cout=1.32p en=2n Vhigh=1e308 Vlow=-1e308
G5 N016 0 N016 1 100m dir=1 vto=-1
G6 0 N016 12 N016 100m dir=1 vto=0
S2 3 4 N006 0 swPow
R1 INAPI INCMI 200
A8 11 12 0 0 0 N006 0 0 SCHMITT Vt=.8 Vh=10m trise=40n tfall=500n Vlow=0 Vhigh=1 td=70n
R9 5 6 50
C18 INBPI INBMI .1p Rpar=100Meg noiseless
B5 0 N022 I=10u*dnlim(uplim(V(INBMI),V(3)+.2,.1), V(4)-.2, .1)+1n*V(INBMI)
B6 N022 0 I=10u*dnlim(uplim(V(INBPI),V(3)+.21,.1), V(4)-.21, .1)+1n*V(INBPI)
C20 N022 0 .1f Rpar=100K noiseless
R10 10 N027 100Meg noiseless
R11 N027 9 100Meg noiseless
M3 10 N026 8 8 N temp=27
M4 9 N029 8 8 P temp=27
C25 10 8 .4p
D9 N026 8 Y
D10 8 N029 Y
A9 N006 0 N027 N027 N027 N027 N026 N027 SCHMITT Vt=.5 Vh=10m Vhigh=0 Vlow=-10 Rout=1k Cout=1p
A10 N006 0 N027 N027 N027 N029 N027 N027 SCHMITT Vt=.5 Vh=10m Vhigh=10 Vlow=0 Rout=1k Cout=1p
G9 N027 0 N027 10 100m dir=1 vto=-1.15
G10 0 N027 9 N027 100m dir=1 vto=0.01
R12 INBPI 15 200
R13 INBMI 13 200
C27 7 9 14p Rpar=1T noiseless
R16 8 7 50
R15 INCMI INBMI 200
C17 6 4 14p Rpar=1T noiseless
C28 6 7 14p Rpar=1T noiseless
C8 8 9 .4p Rpar=100Meg noiseless
A15 0 N004 0 0 0 0 N009 0 OTA g=1m iout=38u Cout=150f Vlow=-1e308 Vhigh=1e308
A11 0 N024 0 0 0 0 N027 0 OTA g=1m iout=38u Cout=150f Vlow=-1e308 Vhigh=1e308
R18 12 11 5Meg noiseless
S3 10 9 N006 0 swPow
S1 1 12 N006 0 swPow
S6 2 12 N006 0 swBias
G1 0 N003 N005 0 1m
C24 N003 0 110f Rpar=1k noiseless
G8 0 N004 N003 0 1m
C26 N004 0 110f Rpar=1k noiseless
C2 3 INAMI .15p Rpar=20Meg Rser=2k noiseless
C32 14 4 .5p Rser=5k noiseless
C5 INAMI 4 .15p Rpar=20Meg Rser=2k noiseless
C6 3 INAPI .15p Rpar=20Meg Rser=2k noiseless
C7 INAPI 4 .15p Rpar=20Meg Rser=2k noiseless
C31 16 4 .5p Rser=5k noiseless
C33 15 9 .5p Rser=5k noiseless
C34 13 9 .5p Rser=5k noiseless
C19 10 INBPI .15p Rpar=20Meg Rser=2k noiseless
C21 10 INBMI .15p Rpar=20Meg Rser=2k noiseless
C22 INBPI 9 .15p Rpar=20Meg Rser=2k noiseless
C23 INBMI 9 .15p Rpar=20Meg Rser=2k noiseless
R4 5 INAMI 200
R14 8 INBPI 200
C16 N019 INCMI 200f Rpar=10 noiseless
A1 0 N002 N006 0 0 0 N005 0 OTA g=1m linear en=2n+freq**2.5/(5e28+9e5*(freq-2e8)**2.8) Rout=1k Cout=150f Vlow=-64m Vhigh=64m
A2 0 N022 N006 0 0 0 N025 0 OTA g=1m linear en=2n+freq**2.5/(5e28+9e5*(freq-2e8)**2.8) Rout=1k Cout=150f Vlow=-64m Vhigh=64m
G2 0 N023 N025 0 1m
C29 N023 0 110f Rpar=1k noiseless
G11 0 N024 N023 0 1m
C30 N024 0 110f Rpar=1k noiseless
G7 N019 INCMI N016 12 100m
S4 12 N019 N006 0 swShut
C35 N019 12 1p
.model Y D(Ron=100 Roff=1T Vfwd=.7 epsilon=.1 noiseless)
.model N VDMOS(Vto=-150m Kp=100m)
.model P VDMOS(Vto=150m Kp=100m pchan)
.model swPow SW(level=2 Ron=50 Roff=76.5k vt=.5 vh=-50m ilimit=9.25m noiseless)
.model swBias SW(level=2 Ron=10k Roff=100G vt=.5 vh=-50m ilimit=5u noiseless)
.model swShut SW(level=2 Ron=1 Roff=100Meg vt=.5 vh=-.1 noiseless)
.ends LT6402-6
*
.subckt LT6552 1 2 3 4 5 6 7 8
B2 N004 0 I=10u*dnlim(uplim(V(8),V(7)-1.91,.1), V(4)-.21, .1)+1n*V(8)
C10 N004 0 .1f Rpar=100K noiseless
M1 6 N015 4 4 NI temp=27
C2 7 6 1p Rpar=100Meg noiseless
D5 N015 4 DLIMN
M2 6 N010 7 7 PI temp=27
D8 7 N010 DLIMP
A3 N011 N012 4 4 4 4 N010 4 OTA g=100n ref=-70m linear vlow=-1e308 vhigh=1e308
C11 6 4 1p Rpar=100Meg noiseless
A4 0 N004 0 0 0 0 N005 0 OTA g=1m linear en=51.3n enk=1.5k Vlow=-1.8 Vhigh=1.8
A5 N006 0 N011 N011 N011 N011 N012 N011 OTA g=6.8u linear Vhigh=1e308 Vlow=-1e308
G1 4 N015 N012 N011 200n
D9 N012 N011 DLIM
C13 7 4 1000p Rpar=18.28k noiseless
C1 N005 0 3p Rpar=1k noiseless
G2 0 N011 4 0 .5m
G4 0 N011 7 0 .5m
C18 N011 0 200p Rpar=1K noiseless
A1 2 3 0 0 0 0 0 0 OTA g=0 in=661f ink=1.22k
C8 N010 6 .1f Rser=40Meg noiseless
C9 6 N015 .1f Rser=40Meg noiseless
C3 7 N010 40f Rser=20Meg noiseless
C12 N015 4 40f Rser=20Meg noiseless
C14 N012 6 13f Rser=50k noiseless
B1 0 N004 I=10u*dnlim(uplim(V(1),V(7)-1.9,.1), V(4)-.2, .1)+1n*V(1)-492p
G3 0 N006 N005 0 1m
C15 N006 0 200f Rpar=1k noiseless
S1 N007 7 N008 0 SBIAS
D1 2 7 DESD
D2 3 7 DESD
D4 1 7 DESD
D6 8 7 DESD
C4 7 2 3.5p Rser=100 Rpar=1G noiseless
D7 4 3 DESD
D10 4 1 DESD
D11 4 8 DESD
D12 4 2 DESD
R4 2 3 300k noiseless
R5 1 8 300k noiseless
A6 5 7 0 0 0 0 N008 0 SCHMITT trise=40n tfall=120n vt=-2.1 vh=10m
D13 7 5 DSHUT
D14 4 5 DESD
D15 5 7 DESD
S2 4 7 N008 0 SPOW
B5 N004 0 I=10u*dnlim(uplim(V(2),V(7)-1.91,.1), V(4)-.21, .1)+1n*V(2)
B6 0 N004 I=10u*dnlim(uplim(V(3),V(7)-1.9,.1), V(4)-.2, .1)+1n*V(3)
S3 N012 N011 0 N008 SHUT2
S7 N010 7 0 N008 SHUT1
S8 4 N015 0 N008 SHUT1
D3 N007 2 DBIAS
D16 N007 3 DBIAS
D17 N007 1 DBIAS
D18 N007 8 DBIAS
D19 N007 4 DPOW2
C5 7 3 3.5p Rser=100 Rpar=1G noiseless
C6 7 1 3.5p Rser=100 Rpar=1G noiseless
C16 7 8 3.5p Rser=100 Rpar=1G noiseless
C17 4 2 3.5p Rser=100 Rpar=1G noiseless
C19 4 3 3.5p Rser=100 Rpar=1G noiseless
C20 4 1 3.5p Rser=100 Rpar=1G noiseless
C21 4 8 3.5p Rser=100 Rpar=1G noiseless
A2 1 8 0 0 0 0 0 0 OTA g=0 in=661f ink=1.22k
.model SBIAS SW(level=2 Ron=10 Roff=1G vt=.5 vh=-.2 noiseless)
.model DBIAS D(Ron=620k Roff=1G vfwd=-6.3 epsilon=.2 noiseless)
.model DSHUT D(Ron=180k Roff=110k Vfwd=1.7 epsilon=.1 noiseless)
.model SPOW SW(level=2 Ron=10 Roff=1Meg vt=.5 vh=-.2 ilimit=12.55m noiseless)
.model DPOW1 D(Ron=100k Roff=1G vfwd=1 epsilon=.1 ilimit=225u noiseless)
.model DPOW2 D(Ron=22.1k Roff=1G  Vfwd=.5 epsilon=.1 noiseless)
.model NI VDMOS(Vto=300m kp=30m lambda=.01)
.model PI VDMOS(Vto=-300m Kp=30m lambda=.01 pchan)
.model DLIM D(Ron=1k Roff=70Meg Vfwd=10 Vrev=2 epsilon=50m revepsilon=50m noiseless)
.model DESD D(Ron=10 Roff=10T Vfwd=.7 epsilon=.1 noiseless)
.model DLIMN D(Ron=100k Roff=100Meg Vfwd=2 Vrev=-300m epsilon=.1 revepsilon=10m  noiseless)
.model DLIMP D(Ron=100k Roff=100Meg Vfwd=2 Vrev=-300m  epsilon=10m revepsilon=10m noiseless)
.model SHUT1 SW(Ron=100k Roff=100G vt=-.8 vh=-100m Vser=300m noiseless)
.model SHUT2 SW(Ron=1k Roff=100G vt=-.8 vh=-100m noiseless)
.ends LT6552
*
.subckt LT6557 1 2 3 4 5 6 7 8 9 10 11 12 13 14 15 16
B1 0 N003 I=10u*dnlim(uplim(V(3),V(13)-.1,.1), V(4)+.1, .1)+1n*V(3)
B2 N003 0 I=10u*dnlim(uplim(V(INMR),V(13)-.09,.1), V(4)+.09, .1)+1n*V(INMR)
C10 N003 0 .1f Rpar=100K noiseless
R2 13 N008 80Meg noiseless
R3 N008 4 80Meg noiseless
C6 13 3 .75p Rpar=10Meg noiseless
C7 3 4 .75p Rpar=10Meg noiseless
M1 13 N005 14 14 N temp=27
M2 4 N014 14 14 P temp=27
D1 N005 14 YU
D9 14 N014 YD
A5 N004 0 N009 N009 N009 N009 N005 N009 SCHMITT Vt=.5 Vh=10m Vhigh=0 Vlow=-7 Rout=1k Cout=.5p
A7 N004 0 N009 N009 N009 N014 N009 N009 SCHMITT Vt=.5 Vh=10m Vhigh=7 Vlow=0 Rout=1k Cout=.5p
C3 13 14 .9p
S2 13 4 N004 0 swPow
A3 0 N003 N004 0 0 0 N008 0 OTA g=20m linear en=11.7n enk=5.7k Cout=8p Vlow=-1e308 Vhigh=1e308
G3 N008 0 N008 13 500m dir=1 vto=-.78
G4 0 N008 4 N008 500m dir=1 vto=-.84
R1 14 INMR 500
R5 15 1 40k
A4 INMR 3 0 0 0 0 0 0 OTA g=0 in=19p ink=90
C1 INMR 3 1p Rser=150 noiseless
C4 14 4 .9p
S4 3 4 N004 0 SWB
C12 14 N009 12f Rser=90k noiseless
C5 N002 0 400f noiseless Rpar=1k
R4 INMR 4 500
G2 0 N009 N002 0 10µ
L1 N009 0 182.8µ Cpar=.684f Rpar=219.047619047619047628k Rser=184K noiseless
G5 0 N002 N008 0 1m
R19 N013 16 19
R20 3 2 200k
G1 N007 N011 N013 16 105m
S1 N011 3 N013 16 SWBVC1
D2 N007 N011 DBIAS
S5 15 N007 N004 0 SWBVC2
D3 N007 N013 DVBC1
B3 0 N022 I=10u*dnlim(uplim(V(5),V(11)-.1,.1), V(6)+.1, .1)+1n*V(5)
B4 N022 0 I=10u*dnlim(uplim(V(INMG),V(11)-.09,.1), V(6)+.09, .1)+1n*V(INMG)
C8 N022 0 .1f Rpar=100K noiseless
R22 11 N025 80Meg noiseless
R23 N025 6 80Meg noiseless
C9 11 5 .75p Rpar=10Meg noiseless
C11 5 6 .75p Rpar=10Meg noiseless
M3 11 N023 12 12 N temp=27
M4 6 N028 12 12 P temp=27
D4 N023 12 YU
D5 12 N028 YD
A2 N004 0 N026 N026 N026 N026 N023 N026 SCHMITT Vt=.5 Vh=10m Vhigh=0 Vlow=-7 Rout=1k Cout=.5p
A6 N004 0 N026 N026 N026 N028 N026 N026 SCHMITT Vt=.5 Vh=10m Vhigh=7 Vlow=0 Rout=1k Cout=.5p
C13 11 12 .9p
A8 0 N022 N004 0 0 0 N025 0 OTA g=20m linear en=11.7n enk=5.7k Cout=8p Vlow=-1e308 Vhigh=1e308
G6 N025 0 N025 11 500m dir=1 vto=-.78
G7 0 N025 6 N025 500m dir=1 vto=-.84
R24 12 INMG 500
A9 INMG 5 0 0 0 0 0 0 OTA g=0 in=19p ink=90
C14 INMG 5 1p Rser=150 noiseless
C15 12 6 .9p
S6 5 6 N004 0 SWB
C16 12 N026 12f Rser=90k noiseless
C17 N021 0 400f noiseless Rpar=1k
R27 INMG 6 500
G8 0 N026 N021 0 10µ
L2 N026 0 182.8µ Cpar=.684f Rpar=219.047619047619047628k Rser=184K noiseless
G9 0 N021 N025 0 1m
R31 5 2 200k
G10 N007 N024 N013 16 105m
S7 N024 5 N013 16 SWBVC1
D6 N007 N024 DBIAS
B5 0 N035 I=10u*dnlim(uplim(V(7),V(9)-.1,.1), V(8)+.1, .1)+1n*V(7)
B6 N035 0 I=10u*dnlim(uplim(V(INMB),V(9)-.09,.1), V(8)+.09, .1)+1n*V(INMB)
C19 N035 0 .1f Rpar=100K noiseless
R7 9 N038 80Meg noiseless
R8 N038 8 80Meg noiseless
C20 9 7 .75p Rpar=10Meg noiseless
C21 7 8 .75p Rpar=10Meg noiseless
M5 9 N036 10 10 N temp=27
M6 8 N041 10 10 P temp=27
D7 N036 10 YU
D8 10 N041 YD
A10 N004 0 N039 N039 N039 N039 N036 N039 SCHMITT Vt=.5 Vh=10m Vhigh=0 Vlow=-7 Rout=1k Cout=.5p
A11 N004 0 N039 N039 N039 N041 N039 N039 SCHMITT Vt=.5 Vh=10m Vhigh=7 Vlow=0 Rout=1k Cout=.5p
C22 9 10 .9p
A12 0 N035 N004 0 0 0 N038 0 OTA g=20m linear en=11.7n enk=5.7k Cout=8p Vlow=-1e308 Vhigh=1e308
G11 N038 0 N038 9 500m dir=1 vto=-.78
G12 0 N038 8 N038 500m dir=1 vto=-.84
R10 10 INMB 500
A13 INMB 7 0 0 0 0 0 0 OTA g=0 in=19p ink=90
C23 INMB 7 1p Rser=150 noiseless
C24 10 8 .9p
S3 7 8 N004 0 SWB
C25 10 N039 12f Rser=90k noiseless
C26 N034 0 400f noiseless Rpar=1k
R13 INMB 8 500
G13 0 N039 N034 0 10µ
L3 N039 0 182.8µ Cpar=.684f Rpar=219.047619047619047628k Rser=184K noiseless
G14 0 N034 N038 0 1m
R15 7 2 200k
G15 N007 N037 N013 16 105m
S8 N037 7 N013 16 SWBVC1
D10 N007 N037 DBIAS
C29 16 2 10p
C30 N011 2 100f Rpar=5k noiseless
C31 N024 2 100f Rpar=5k noiseless
C32 N037 2 100f Rpar=5k noiseless
C33 N007 2 10p
D11 N013 2 DVBC2
C28 N013 2 100f
S9 11 6 N004 0 swPow
S10 9 8 N004 0 swPow
A14 15 1 0 0 0 0 N004 0 SCHMITT Vt=1.5 Vh=10m trise=50n tfall=1u Vlow=0 Vhigh=1
.model YU D(Ron=10k Roff=1G Vfwd=.39 epsilon=.1 noiseless)
.model YD D(Ron=10k Roff=1G Vfwd=.42 epsilon=.1 noiseless)
.model N VDMOS(Vto=-50m Kp=900m)
.model P VDMOS(Vto=50m Kp=900m pchan)
.model swPow SW(level=2 Ron=100 Roff=2.5Meg vt=.5 vh=-50m ilimit=21m noiseless)
.model SWB SW(Ron=10k Roff=1g vt=.5 vh=-.3 ilimit=35u noiseless)
.model SWBVC1 SW(level=2 Ron=10 Roff=1G vt=550u vh=-100u noiseless)
.model SWBVC2 SW(level=2 Ron=10 Roff=1G vt=.5 vh=-.2 noiseless)
.model DBIAS D(Ron=100 Roff=1G Vfwd=.1 epsilon=50m ilimit=35u noiseless)
.model DVBC1 D(Ron=1 Roff=1k Vfwd=.5 epsilon=100m ilimit=1.65m noiseless)
.model DVBC2 D(Ron=6 Roff=1Meg Vfwd=30m epsilon=10m noiseless)
.ends LT6557
*
.subckt LT6558 1 2 3 4 5 6 7 8 9 10 11 12 13 14 15 16
B1 0 N003 I=10u*dnlim(uplim(V(3),V(13)-.1,.1), V(4)+.1, .1)+1n*V(3)
B2 N003 0 I=10u*dnlim(uplim(V(14),V(13)-.09,.1), V(4)+.09, .1)+1n*V(14)
C10 N003 0 .1f Rpar=100K noiseless
R2 13 N008 80Meg noiseless
R3 N008 4 80Meg noiseless
C6 13 3 .6p Rpar=10Meg noiseless
C7 3 4 .6p Rpar=10Meg noiseless
M1 13 N005 14 14 N temp=27
M2 4 N014 14 14 P temp=27
D1 N005 14 YU
D9 14 N014 YD
A5 N004 0 N009 N009 N009 N009 N005 N009 SCHMITT Vt=.5 Vh=10m Vhigh=0 Vlow=-7 Rout=1k Cout=.5p
A7 N004 0 N009 N009 N009 N014 N009 N009 SCHMITT Vt=.5 Vh=10m Vhigh=7 Vlow=0 Rout=1k Cout=.5p
C3 13 14 .9p
S2 13 4 N004 0 swPow
A3 0 N003 N004 0 0 0 N008 0 OTA g=20m linear en=18n enk=300 Cout=12p Vlow=-1e308 Vhigh=1e308
G3 N008 0 N008 13 500m dir=1 vto=-.78
G4 0 N008 4 N008 500m dir=1 vto=-.84
R5 15 1 40k
C1 14 3 1p Rser=150 noiseless
C4 14 4 .9p
S4 3 4 N004 0 SWB
C12 14 N009 10f Rser=150k noiseless
C5 N002 0 800f noiseless Rpar=1k
G2 0 N009 N002 0 10µ
L1 N009 0 151µ Cpar=.422f Rpar=263.9k Rser=161K noiseless
G5 0 N002 N008 0 1m
R20 3 2 200k
G1 N007 N011 N013 16 82m
S1 N011 3 N013 16 SWBVC1
D2 N007 N011 DBIAS
S5 15 N007 N004 0 SWBVC2
D3 N007 N013 DVBC1
B3 0 N022 I=10u*dnlim(uplim(V(5),V(11)-.1,.1), V(6)+.1, .1)+1n*V(5)
B4 N022 0 I=10u*dnlim(uplim(V(12),V(11)-.09,.1), V(6)+.09, .1)+1n*V(12)
C8 N022 0 .1f Rpar=100K noiseless
R22 11 N025 80Meg noiseless
R23 N025 6 80Meg noiseless
C9 11 5 .6p Rpar=10Meg noiseless
C11 5 6 .6p Rpar=10Meg noiseless
M3 11 N023 12 12 N temp=27
M4 6 N028 12 12 P temp=27
D4 N023 12 YU
D5 12 N028 YD
A2 N004 0 N026 N026 N026 N026 N023 N026 SCHMITT Vt=.5 Vh=10m Vhigh=0 Vlow=-7 Rout=1k Cout=.5p
A6 N004 0 N026 N026 N026 N028 N026 N026 SCHMITT Vt=.5 Vh=10m Vhigh=7 Vlow=0 Rout=1k Cout=.5p
C13 11 12 .9p
G6 N025 0 N025 11 500m dir=1 vto=-.78
G7 0 N025 6 N025 500m dir=1 vto=-.84
A9 12 5 0 0 0 0 0 0 OTA g=0 in=5p ink=36.4k
C14 12 5 1p Rser=150 noiseless
C15 12 6 .9p
S6 5 6 N004 0 SWB
C17 N021 0 800f noiseless Rpar=1k
G8 0 N026 N021 0 10µ
G9 0 N021 N025 0 1m
R31 5 2 200k
G10 N007 N024 N013 16 82m
S7 N024 5 N013 16 SWBVC1
D6 N007 N024 DBIAS
B5 0 N035 I=10u*dnlim(uplim(V(7),V(9)-.1,.1), V(8)+.1, .1)+1n*V(7)
B6 N035 0 I=10u*dnlim(uplim(V(10),V(9)-.09,.1), V(8)+.09, .1)+1n*V(10)
C19 N035 0 .1f Rpar=100K noiseless
R7 9 N038 80Meg noiseless
R8 N038 8 80Meg noiseless
C20 9 7 .6p Rpar=10Meg noiseless
C21 7 8 .6p Rpar=10Meg noiseless
M5 9 N036 10 10 N temp=27
M6 8 N041 10 10 P temp=27
D7 N036 10 YU
D8 10 N041 YD
A10 N004 0 N039 N039 N039 N039 N036 N039 SCHMITT Vt=.5 Vh=10m Vhigh=0 Vlow=-7 Rout=1k Cout=.5p
A11 N004 0 N039 N039 N039 N041 N039 N039 SCHMITT Vt=.5 Vh=10m Vhigh=7 Vlow=0 Rout=1k Cout=.5p
C22 9 10 .9p
G11 N038 0 N038 9 500m dir=1 vto=-.78
G12 0 N038 8 N038 500m dir=1 vto=-.84
C23 10 7 1p Rser=150 noiseless
C24 10 8 .9p
S3 7 8 N004 0 SWB
C26 N034 0 800f noiseless Rpar=1k
G13 0 N039 N034 0 10µ
G14 0 N034 N038 0 1m
R15 7 2 200k
G15 N007 N037 N013 16 82m
S8 N037 7 N013 16 SWBVC1
D10 N007 N037 DBIAS
C29 16 2 10p
C30 N011 2 100f Rpar=5k noiseless
C31 N024 2 100f Rpar=5k noiseless
C32 N037 2 100f Rpar=5k noiseless
C33 N007 2 10p
D11 N013 2 DVBC2
C28 N013 2 100f
S9 11 6 N004 0 swPow
S10 9 8 N004 0 swPow
A14 15 1 0 0 0 0 N004 0 SCHMITT Vt=1.5 Vh=10m trise=50n tfall=1u Vlow=0 Vhigh=1
D12 N013 16 DVBC3
L2 N026 0 151µ Cpar=.422f Rpar=263.9k Rser=161K noiseless
L3 N039 0 151µ Cpar=.422f Rpar=263.9k Rser=161K noiseless
C16 12 N026 10f Rser=150k noiseless
C25 10 N039 10f Rser=150k noiseless
A1 14 3 0 0 0 0 0 0 OTA g=0 in=5p ink=36.4k
A4 10 7 0 0 0 0 0 0 OTA g=0 in=5p ink=36.4k
A8 0 N022 N004 0 0 0 N025 0 OTA g=20m linear en=18n enk=300 Cout=12p Vlow=-1e308 Vhigh=1e308
A12 0 N035 N004 0 0 0 N038 0 OTA g=20m linear en=18n enk=300 Cout=12p Vlow=-1e308 Vhigh=1e308
.model YU D(Ron=10k Roff=1G Vfwd=.37 epsilon=.1 noiseless)
.model YD D(Ron=1k Roff=1G Vfwd=.35 epsilon=.1 noiseless)
.model N VDMOS(Vto=-50m Kp=900m)
.model P VDMOS(Vto=50m Kp=900m pchan)
.model swPow SW(level=2 Ron=100 Roff=2.5Meg vt=.5 vh=-50m ilimit=21m noiseless)