* Copyright (c) 1998-2017 Linear Technology Corporation.  All rights reserved.

.subckt LT6106 1 2 3 4 5
C1 5 3 .2p
C2 3 2 .2p
C3 5 4 .2p
C4 4 2 .2p
C5 N002 0 20f Rpar=100K noiseless
C12 1 2 100f Rpar=1G
B1 N002 0 I=10u*dnlim(uplim(V(3),V(5)+.11,.1), V(5)-.71, .1) + 10n*V(3)
B2 0 N002 I=10u*dnlim(uplim(V(4),V(5)+.1,.1), V(5)-.7, .1)+ 10n*V(4)
M1 1 N004 3 3 POUT Temp=27
D1 5 N004 DLIMP
C6 5 N004 100f Rser=1Meg
A1 0 N005 0 0 0 0 N004 0 OTA g=200n ref=-17m linear vlow=-1e308 vhigh=1e308
A2 0 N006 0 0 0 0 N005 0 OTA g=200u linear Vhigh=1e308 Vlow=-1e308
C7 N005 1 3p
D2 N005 0 DLIM
A3 0 N002 0 0 0 0 N006 0 OTA g=1u linear rout=1Meg Cout=200f Vhigh=15m Vlow=-30m
D3 4 2 DBIAS
D4 3 2 DBIAS
D5 5 2 DP
D6 3 4 DIN
.model DLIM D(Ron=100 Roff=700k Vfwd=400m Vrev=600m epsilon=10m revepsilon=10m)
.model DLIMP D(Ron=1k Roff=100Meg Vfwd=4 Vrev=-310m  epsilon=10m revepsilon=10m)
.model POUT VDMOS(Vto=-300m Kp=30m mtriode=10 rs=1k pchan)
.model DBIAS D(Ron=1Meg Roff=1G Vfwd=.5 epsilon=100m ilimit=15n)
.model DP D(Ron=1k Roff=1G Vfwd=.5 epsilon=100m ilimit=60u)
.model DIN D(Ron=28k Roff=100G Vfwd=1 epsilon=100m Vrev=1 epsilon=100m)
.ends LT6106
*
.subckt LTC6403-1 1 2 3 4 5 6 7 8 9 10
M1 4 N015 6 6 NI temp=27
D5 N015 6 DLIMN
M2 4 N008 3 3 PI temp=27
D8 3 N008 DLIMP
C3 3 N008 .05f Rser=7Meg noiseless
A3 N009 N011 6 6 6 6 N008 6 OTA g=200n ref=-53m linear vlow=-1e308 vhigh=1e308
A5 N006 0 N009 N009 N009 N009 N011 N009 OTA g=22u linear cout=1f Vhigh=1e308 Vlow=-1e308
G1 6 N015 N011 N009 200n
D9 N011 N009 DLIM
C7 3 8 500f Rser=800 Rpar=3.4Meg noiseless
C13 3 6 1000p
S1 N011 N009 0 N007 SHUT2
C17 6 7 500f
S4 N008 3 0 N007 SHUT1
S2 6 N015 0 N007 SHUT1
A2 7 3 0 0 0 0 N007 0 SCHMITT trise=3u tfall=.2u vt=-1.6 vh=10m
D6 1 3 DESD
D7 6 1 DESD
D10 8 1 DIN
D11 6 8 DESD
A1 0 8 0 0 0 0 0 0 OTA g=0 in=1.78p ink=78k
M3 5 N026 6 6 NI temp=27
D3 N026 6 DLIMN
M4 5 N023 3 3 PI temp=27
D12 3 N023 DLIMP
A6 N009 N024 6 6 6 6 N023 6 OTA g=200n ref=-53m linear vlow=-1e308 vhigh=1e308
A7 0 N006 N009 N009 N009 N009 N024 N009 OTA g=22u linear cout=1f Vhigh=1e308 Vlow=-1e308
G5 6 N026 N024 N009 200n
D13 N024 N009 DLIM
S3 N024 N009 0 N007 SHUT2
S5 N023 3 0 N007 SHUT1
S6 6 N026 0 N007 SHUT1
R3 4 N018 1Meg noiseless
R4 5 N018 1Meg noiseless
A8 N018 2 0 0 0 0 N013 0 OTA g=10m iout=5m en=5n enk=50k Rout=1k Cout=2p ref=-586u Vlow=-1e308 Vhigh=1e308
G6 N009 N024 0 N013 20µ
G7 N009 N011 0 N013 20µ
D14 N013 0 DCML
C2 3 4 .1p Rpar=100Meg noiseless
C8 4 6 .1p Rpar=100Meg noiseless
C9 3 5 .1p Rpar=100Meg noiseless
C11 5 6 .1p Rpar=100Meg noiseless
C14 N011 4 153f
C16 5 N024 153f
R10 3 7 66k noiseless
D2 3 6 DPOWS
S7 6 3 N007 0 SPOWR
A10 0 1 0 0 0 0 0 0 OTA g=0 in=1.78p ink=78k
D1 2 3 DESD
D4 6 2 DESD
D17 7 3 DESD
D18 6 7 DESD
C10 N006 0 2f Rpar=60k noiseless
B1 0 N005 I=10u*dnlim(uplim(V(8),V(3)-1.3,.1), V(6)-.3, .1)+1n*V(8)
B2 N005 0 I=10u*dnlim(uplim(V(1),V(3)-1.29,.1), V(6)-.31, .1)+1n*V(1)
C20 N005 0 2f Rpar=100K noiseless
G8 0 N009 6 0 .5m
G9 0 N009 3 0 .5m
C21 N009 0 200p Rpar=1K noiseless
R5 4 9 100
C24 9 10 12p
R6 10 5 100
C18 9 6 12p
C29 10 6 12p
D16 8 3 DESD
C12 N015 6 .05f Rser=7Meg noiseless
C15 3 N023 .05f Rser=7Meg noiseless
C19 N026 6 .05f Rser=7Meg noiseless
R9 2 6 46k
R11 3 2 46k
S8 3 1 N007 0 SBIAS
S9 3 8 N007 0 SBIAS
A4 0 N005 0 0 0 0 N006 0 OTA g=100u linear en=2.79n enk=31.9k Vhigh=1e308 Vlow=-1e308
C4 3 1 500f Rser=800 Rpar=3.4Meg noiseless
C5 8 6 500f Rser=800 Rpar=3.4Meg noiseless
C6 1 6 500f Rser=800 Rpar=3.4Meg noiseless
D15 N006 0 DSI Temp=27
D19 0 N006 DSI Temp=27
.model DPOWS D(Ron=1k Roff=1G Vfwd=2 epsilon=.1 ilimit=91u noiseless)
.model SPOWR SW(level=1 Ron=100 Roff=1g vt=.5 vh=-.1 ilimit=6.6m noiseless)
.model SBIAS SW(level=2 Ron=1k Roff=1G vt=.5 vh=-.1 ilimit=7.5u noiseless)
.model DIN D(Ron=100 Roff=14k Vfwd=1.4 epsilon=.1 Vrev=1.4 epsilon=.1 noiseless)
.model SHUT1 SW(Ron=100k Roff=100G vt=-.8 vh=-100m Vser=300m noiseless)
.model SHUT2 SW(Ron=1k Roff=100G vt=-.8 vh=-100m noiseless)
.model NI VDMOS(Vto=300m kp=30m lambda=.1)
.model PI VDMOS(Vto=-300m Kp=30m lambda=.1 pchan)
.model DLS D(Ron=10k Roff=1G Vfwd=.4 Vrev=.4 epsilon=50m revepsilon=50m noiseless)
.model DLIMN D(Ron=100k Roff=100Meg Vfwd=3.3 Vrev=-300m epsilon=.1  noiseless)
.model DLIMP D(Ron=100k Roff=100Meg Vfwd=2.15 Vrev=-300m  epsilon=10m revepsilon=10m noiseless)
.model DCML D(Ron=10 Roff=1k Vfwd=500m epsilon=10m Vrev=500m revepsilon=10m noiseless)
.model DLIM D(Ron=100 Roff=52k Vfwd=2 Vrev=2 epsilon=100m revepsilon=100m noiseless)
.model DSI D(IS=1e-17 TT=1.2e-9 noiseless)
.model DESD D(Ron=100 Roff=1G Vfwd=.7 epsilon=.1 noiseless)
.ends LTC6403-1
*
.subckt LTC6404-1 1 2 3 4 5 6 7 8 9 10
M1 4 N015 6 6 NI temp=27
D5 N015 6 DLIMN
M2 4 N008 3 3 PI temp=27
D8 3 N008 DLIMP
C3 3 N008 .03f Rser=7Meg noiseless
A3 N009 N011 6 6 6 6 N008 6 OTA g=200n ref=-53m linear vlow=-1e308 vhigh=1e308
A5 N006 0 N009 N009 N009 N009 N011 N009 OTA g=300u linear cout=1f Vhigh=1e308 Vlow=-1e308
G1 6 N015 N011 N009 200n
D9 N011 N009 DLIM
C7 3 8 1p Rser=800 Rpar=2Meg noiseless
C13 3 6 1000p
S1 N011 N009 0 N007 SHUT2
C17 6 7 500f
S4 N008 3 0 N007 SHUT1
S2 6 N015 0 N007 SHUT1
A2 7 3 0 0 0 0 N007 0 SCHMITT trise=.5u tfall=.5u vt=-2.05 vh=10m
D6 1 3 DESD
D7 6 1 DESD
D10 8 1 DIN
D11 6 8 DESD
A1 0 8 0 0 0 0 0 0 OTA g=0 in=3p ink=30k
M3 5 N026 6 6 NI temp=27
D3 N026 6 DLIMN
M4 5 N023 3 3 PI temp=27
D12 3 N023 DLIMP
A6 N009 N024 6 6 6 6 N023 6 OTA g=200n ref=-53m linear vlow=-1e308 vhigh=1e308
A7 0 N006 N009 N009 N009 N009 N024 N009 OTA g=300u linear cout=1f Vhigh=1e308 Vlow=-1e308
G5 6 N026 N024 N009 200n
D13 N024 N009 DLIM
S3 N024 N009 0 N007 SHUT2
S5 N023 3 0 N007 SHUT1
S6 6 N026 0 N007 SHUT1
R3 4 N018 1Meg noiseless
R4 5 N018 1Meg noiseless
A8 N018 2 0 0 0 0 N013 0 OTA g=10m linear en=9n enk=20k Rout=1k Cout=2p ref=-586u Vlow=-1e308 Vhigh=1e308
G6 N009 N024 0 N013 100µ
G7 N009 N011 0 N013 100µ
D14 N013 0 DCML
C2 3 4 .5p Rpar=1Meg noiseless
C8 4 6 .5p Rpar=1Meg noiseless
C9 3 5 .5p Rpar=1Meg noiseless
C11 5 6 .5p Rpar=1Meg noiseless
C14 N011 4 1.1p noiseless
C16 5 N024 1.1p noiseless
R10 3 7 66k noiseless
D2 3 6 DPOWS
S7 6 3 N007 0 SPOWR
A10 0 1 0 0 0 0 0 0 OTA g=0 in=3p ink=30k
D1 2 3 DESD
D4 6 2 DESD
D17 7 3 DESD
D18 6 7 DESD
C10 N006 0 8f Rpar=1Meg noiseless
B1 0 N005 I=10u*dnlim(uplim(V(8),V(3)-1.3,.1), V(6)-.3, .1)+1n*V(8)
B2 N005 0 I=10u*dnlim(uplim(V(1),V(3)-1.29,.1), V(6)-.31, .1)+1n*V(1)
C20 N005 0 2f Rpar=100K noiseless
G8 0 N009 6 0 .5m
G9 0 N009 3 0 .5m
C21 N009 0 200p Rpar=1K noiseless
D15 0 N006 DLIMI
R5 4 10 50
C24 10 9 12p
R6 9 5 50
C18 10 6 12p
C29 9 6 12p
C4 3 1 1p Rser=800 Rpar=2Meg noiseless
C5 8 6 1p Rser=800 Rpar=2Meg noiseless
C6 1 6 1p Rser=800 Rpar=2Meg noiseless
D16 8 3 DESD
C1 N008 4 .01f Rser=20Meg noiseless
C22 4 N015 .01f Rser=20Meg noiseless
C23 N023 5 .01f Rser=20Meg noiseless
C25 5 N026 .01f Rser=20Meg noiseless
C12 N015 6 .03f Rser=7Meg noiseless
C15 3 N023 .03f Rser=7Meg noiseless
C19 N026 6 .03f Rser=7Meg noiseless
R9 2 6 47k
R11 3 2 47k
S8 3 1 N007 0 SBIAS
S9 3 8 N007 0 SBIAS
A4 0 N005 0 0 0 0 N006 0 OTA g=1m linear en=1.5n enk=20k Vhigh=1e308 Vlow=-1e308
.model DPOWS D(Ron=1k Roff=1G Vfwd=2 epsilon=.1 ilimit=169u noiseless)
.model SPOWR SW(level=1 Ron=100 Roff=1g vt=.5 vh=-.1 ilimit=23.4m noiseless)
.model SBIAS SW(level=2 Ron=1k Roff=1G vt=.5 vh=-.1 ilimit=23u noiseless)
.model DIN D(Ron=100 Roff=3k Vfwd=1.4 epsilon=.1 Vrev=1.4 epsilon=.1 noiseless)
.model SHUT1 SW(Ron=100k Roff=100G vt=-.8 vh=-100m Vser=300m noiseless)
.model SHUT2 SW(Ron=1k Roff=100G vt=-.8 vh=-100m noiseless)
.model NI VDMOS(Vto=300m kp=60m lambda=.1)
.model PI VDMOS(Vto=-300m Kp=60m lambda=.1 pchan)
.model DLS D(Ron=10k Roff=1G Vfwd=.4 Vrev=.4 epsilon=50m revepsilon=50m noiseless)
.model DLIMN D(Ron=100k Roff=100Meg Vfwd=1.66 Vrev=-300m epsilon=.1  noiseless)
.model DLIMP D(Ron=100k Roff=100Meg Vfwd=1.66 Vrev=-300m  epsilon=10m revepsilon=10m noiseless)
.model DCML D(Ron=10 Roff=1k Vfwd=500m epsilon=10m Vrev=500m revepsilon=10m noiseless)
.model DLIM D(Ron=100 Roff=70k Vfwd=400m Vrev=400m epsilon=100m revepsilon=100m noiseless)
.model DLIMI D(Ron=1 Roff=10k Vfwd=.68 Vrev=.68 epsilon=50m revepsilon=50m noiseless)
.model DESD D(Ron=100 Roff=1G Vfwd=.7 epsilon=.1 noiseless)
.ends LTC6404-1
*
.subckt LTC6404-2 1 2 3 4 5 6 7 8 9 10
M1 4 XPN 6 6 NI temp=27
D5 XPN 6 DLIMN
M2 4 XPP 3 3 PI temp=27
D8 3 XPP DLIMP
C3 3 XPP .03f Rser=7Meg noiseless
A3 N008 N010 6 6 6 6 XPP 6 OTA g=200n ref=-53m linear vlow=-1e308 vhigh=1e308
A5 N006 0 N008 N008 N008 N008 N010 N008 OTA g=300u linear cout=1f Vhigh=1e308 Vlow=-1e308
G1 6 XPN N010 N008 200n
D9 N010 N008 DLIM
C7 3 8 1p Rser=800 Rpar=2Meg noiseless
C13 3 6 1000p
S1 N010 N008 0 N007 SHUT2
C17 6 7 500f
S4 XPP 3 0 N007 SHUT1
S2 6 XPN 0 N007 SHUT1
A2 7 3 0 0 0 0 N007 0 SCHMITT trise=.5u tfall=.5u vt=-2.05 vh=10m
D6 1 3 DESD
D7 6 1 DESD
D10 8 1 DIN
D11 6 8 DESD
A1 0 8 0 0 0 0 0 0 OTA g=0 in=3p
M3 5 XNN 6 6 NI temp=27
D3 XNN 6 DLIMN
M4 5 XNP 3 3 PI temp=27
D12 3 XNP DLIMP
A6 N008 N021 6 6 6 6 XNP 6 OTA g=200n ref=-53m linear vlow=-1e308 vhigh=1e308
A7 0 N006 N008 N008 N008 N008 N021 N008 OTA g=300u linear cout=1f Vhigh=1e308 Vlow=-1e308
G5 6 XNN N021 N008 200n
D13 N021 N008 DLIM
S3 N021 N008 0 N007 SHUT2
S5 XNP 3 0 N007 SHUT1
S6 6 XNN 0 N007 SHUT1
R3 4 N016 1Meg noiseless
R4 5 N016 1Meg noiseless
A8 N016 2 0 0 0 0 N012 0 OTA g=10m linear en=10n enk=20k Rout=1k Cout=2p ref=-586u Vlow=-1e308 Vhigh=1e308
G6 N008 N021 0 N012 100µ
G7 N008 N010 0 N012 100µ
D14 N012 0 DCML
C2 3 4 .5p Rpar=1Meg noiseless
C8 4 6 .5p Rpar=1Meg noiseless
C9 3 5 .5p Rpar=1Meg noiseless
C11 5 6 .5p Rpar=1Meg noiseless
C14 N010 4 .55p noiseless
C16 5 N021 .55p noiseless
R10 3 7 66k noiseless
D2 3 6 DPOWS
S7 6 3 N007 0 SPOWR
A10 0 1 0 0 0 0 0 0 OTA g=0 in=3p
D1 2 3 DESD
D4 6 2 DESD
D17 7 3 DESD
D18 6 7 DESD
C10 N006 0 8f Rpar=1Meg noiseless
B1 0 N005 I=10u*dnlim(uplim(V(8),V(3)-1.3,.1), V(6)-.3, .1)+1n*V(8)
B2 N005 0 I=10u*dnlim(uplim(V(1),V(3)-1.29,.1), V(6)-.31, .1)+1n*V(1)
C20 N005 0 2f Rpar=100K noiseless
G8 0 N008 6 0 .5m
G9 0 N008 3 0 .5m
C21 N008 0 200p Rpar=1K noiseless
D15 0 N006 DLIMI
R5 4 10 50
C24 10 9 12p
R6 9 5 50
C18 10 6 12p
C29 9 6 12p
C4 3 1 1p Rser=800 Rpar=2Meg noiseless
C5 8 6 1p Rser=800 Rpar=2Meg noiseless
C6 1 6 1p Rser=800 Rpar=2Meg noiseless
D16 8 3 DESD
C1 XPP 4 .01f Rser=20Meg noiseless
C22 4 XPN .01f Rser=20Meg noiseless
C23 XNP 5 .01f Rser=20Meg noiseless
C25 5 XNN .01f Rser=20Meg noiseless
C12 XPN 6 .03f Rser=7Meg noiseless
C15 3 XNP .03f Rser=7Meg noiseless
C19 XNN 6 .03f Rser=7Meg noiseless
R9 2 6 28k
R11 3 2 28k
S8 3 1 N007 0 SBIAS
S9 3 8 N007 0 SBIAS
A4 0 N005 0 0 0 0 N006 0 OTA g=1m linear en=1.5n enk=20k Vhigh=1e308 Vlow=-1e308
.model DPOWS D(Ron=1k Roff=1G Vfwd=2 epsilon=.1 ilimit=147.5u noiseless)
.model SPOWR SW(level=1 Ron=100 Roff=1g vt=.5 vh=-.1 ilimit=25.9m noiseless)
.model SBIAS SW(level=2 Ron=1k Roff=1G vt=.5 vh=-.1 ilimit=23u noiseless)
.model DIN D(Ron=100 Roff=3k Vfwd=1.4 epsilon=.1 Vrev=1.4 epsilon=.1 noiseless)
.model SHUT1 SW(Ron=100k Roff=100G vt=-.8 vh=-100m Vser=300m noiseless)
.model SHUT2 SW(Ron=1k Roff=100G vt=-.8 vh=-100m noiseless)
.model NI VDMOS(Vto=300m kp=60m lambda=.1)
.model PI VDMOS(Vto=-300m Kp=60m lambda=.1 pchan)
.model DLS D(Ron=10k Roff=1G Vfwd=.4 Vrev=.4 epsilon=50m revepsilon=50m noiseless)
.model DLIMN D(Ron=100k Roff=100Meg Vfwd=1.66 Vrev=-300m epsilon=.1  noiseless)
.model DLIMP D(Ron=100k Roff=100Meg Vfwd=1.66 Vrev=-300m  epsilon=10m revepsilon=10m noiseless)
.model DCML D(Ron=10 Roff=1k Vfwd=500m epsilon=10m Vrev=500m revepsilon=10m noiseless)
.model DLIM D(Ron=100 Roff=70k Vfwd=400m Vrev=400m epsilon=100m revepsilon=100m noiseless)
.model DLIMI D(Ron=1 Roff=10k Vfwd=.62 Vrev=.62 epsilon=50m revepsilon=50m noiseless)
.model DESD D(Ron=100 Roff=1G Vfwd=.7 epsilon=.1 noiseless)
.ends LTC6404-2
*
.subckt LTC6404-4 1 2 3 4 5 6 7 8 9 10
M1 4 N015 6 6 NI temp=27
D5 N015 6 DLIMN
M2 4 N008 3 3 PI temp=27
D8 3 N008 DLIMP
C3 3 N008 .03f Rser=7Meg noiseless
A3 N009 N011 6 6 6 6 N008 6 OTA g=200n ref=-53m linear vlow=-1e308 vhigh=1e308
A5 N006 0 N009 N009 N009 N009 N011 N009 OTA g=300u linear cout=1f Vhigh=1e308 Vlow=-1e308
G1 6 N015 N011 N009 200n
D9 N011 N009 DLIM
C7 3 8 2p Rser=800 Rpar=2Meg noiseless
C13 3 6 1000p
S1 N011 N009 0 N007 SHUT2
C17 6 7 500f
S4 N008 3 0 N007 SHUT1
S2 6 N015 0 N007 SHUT1
A2 7 3 0 0 0 0 N007 0 SCHMITT trise=.5u tfall=.5u vt=-2.05 vh=10m
D6 1 3 DESD
D7 6 1 DESD
D10 8 1 DIN
D11 6 8 DESD
A1 0 8 0 0 0 0 0 0 OTA g=0 in=3p ink=20k
M3 5 N026 6 6 NI temp=27
D3 N026 6 DLIMN
M4 5 N023 3 3 PI temp=27
D12 3 N023 DLIMP
A6 N009 N024 6 6 6 6 N023 6 OTA g=200n ref=-53m linear vlow=-1e308 vhigh=1e308
A7 0 N006 N009 N009 N009 N009 N024 N009 OTA g=300u linear cout=1f Vhigh=1e308 Vlow=-1e308
G5 6 N026 N024 N009 200n
D13 N024 N009 DLIM
S3 N024 N009 0 N007 SHUT2
S5 N023 3 0 N007 SHUT1
S6 6 N026 0 N007 SHUT1
R3 4 N018 1Meg noiseless
R4 5 N018 1Meg noiseless
A8 N018 2 0 0 0 0 N013 0 OTA g=10m linear en=20n enk=20k Rout=1k Cout=2p ref=-586u Vlow=-1e308 Vhigh=1e308
G6 N009 N024 0 N013 100µ
G7 N009 N011 0 N013 100µ
D14 N013 0 DCML
C2 3 4 .5p Rpar=1Meg noiseless
C8 4 6 .5p Rpar=1Meg noiseless
C9 3 5 .5p Rpar=1Meg noiseless
C11 5 6 .5p Rpar=1Meg noiseless
C14 N011 4 .4p noiseless
C16 5 N024 .4p noiseless
R10 3 7 66k noiseless
D2 3 6 DPOWS
S7 6 3 N007 0 SPOWR
A10 0 1 0 0 0 0 0 0 OTA g=0 in=3p ink=20k
D1 2 3 DESD
D4 6 2 DESD
D17 7 3 DESD
D18 6 7 DESD
C10 N006 0 8f Rpar=1Meg noiseless
B1 0 N005 I=10u*dnlim(uplim(V(8),V(3)-1.3,.1), V(6)-.3, .1)+1n*V(8)
B2 N005 0 I=10u*dnlim(uplim(V(1),V(3)-1.29,.1), V(6)-.31, .1)+1n*V(1)
C20 N005 0 2f Rpar=100K noiseless
G8 0 N009 6 0 .5m
G9 0 N009 3 0 .5m
C21 N009 0 200p Rpar=1K noiseless
D15 0 N006 DLIMI
R5 4 10 50
C24 10 9 12p
R6 9 5 50
C18 10 6 12p
C29 9 6 12p
D16 8 3 DESD
C1 N008 4 .01f Rser=20Meg noiseless
C22 4 N015 .01f Rser=20Meg noiseless
C23 N023 5 .01f Rser=20Meg noiseless
C25 5 N026 .01f Rser=20Meg noiseless
C12 N015 6 .03f Rser=7Meg noiseless
C15 3 N023 .03f Rser=7Meg noiseless
C19 N026 6 .03f Rser=7Meg noiseless
R9 2 6 14k
R11 3 2 14k
S8 3 1 N007 0 SBIAS
S9 3 8 N007 0 SBIAS
C4 3 1 2p Rser=800 Rpar=2Meg noiseless
C5 8 6 2p Rser=800 Rpar=2Meg noiseless
C6 1 6 2p Rser=800 Rpar=2Meg noiseless
A4 0 N005 0 0 0 0 N006 0 OTA g=1m linear en=1.5n enk=20k Vhigh=1e308 Vlow=-1e308
.model DPOWS D(Ron=1k Roff=1G Vfwd=2 epsilon=.1 ilimit=147.5u noiseless)
.model SPOWR SW(level=1 Ron=100 Roff=1g vt=.5 vh=-.1 ilimit=26.26m noiseless)
.model SBIAS SW(level=2 Ron=1k Roff=1G vt=.5 vh=-.1 ilimit=23u noiseless)
.model DIN D(Ron=100 Roff=3k Vfwd=1.4 epsilon=.1 Vrev=1.4 epsilon=.1 noiseless)
.model SHUT1 SW(Ron=100k Roff=100G vt=-.8 vh=-100m Vser=300m noiseless)
.model SHUT2 SW(Ron=1k Roff=100G vt=-.8 vh=-100m noiseless)
.model NI VDMOS(Vto=300m kp=60m lambda=.1)
.model PI VDMOS(Vto=-300m Kp=60m lambda=.1 pchan)
.model DLS D(Ron=10k Roff=1G Vfwd=.4 Vrev=.4 epsilon=50m revepsilon=50m noiseless)
.model DLIMN D(Ron=100k Roff=100Meg Vfwd=1.66 Vrev=-300m epsilon=.1  noiseless)
.model DLIMP D(Ron=100k Roff=100Meg Vfwd=1.66 Vrev=-300m  epsilon=10m revepsilon=10m noiseless)
.model DCML D(Ron=10 Roff=1k Vfwd=500m epsilon=10m Vrev=500m revepsilon=10m noiseless)
.model DLIM D(Ron=100 Roff=70k Vfwd=400m Vrev=400m epsilon=100m revepsilon=100m noiseless)
.model DLIMI D(Ron=1 Roff=10k Vfwd=.68 Vrev=.68 epsilon=50m revepsilon=50m noiseless)
.model DESD D(Ron=100 Roff=1G Vfwd=.7 epsilon=.1 noiseless)
.ends LTC6404-4
*
.subckt LTC6405 1 2 3 4 5 6 7 8 9 10
M1 4 N015 6 6 NI temp=27
D5 N015 6 DLIMN
M2 4 N008 3 3 PI temp=27
D8 3 N008 DLIMP
C3 3 N008 .1f Rser=7Meg noiseless
A3 N009 N011 6 6 6 6 N008 6 OTA g=200n ref=-55m linear vlow=-1e308 vhigh=1e308
A5 N006 0 N009 N009 N009 N009 N011 N009 OTA g=22u linear cout=1f Vhigh=1e308 Vlow=-1e308
G1 6 N015 N011 N009 200n
D9 N011 N009 DLIM
C7 3 8 1p Rser=80 Rpar=460k noiseless
C13 3 6 1000p
S1 N011 N009 0 N007 SHUT2
C17 6 7 500f
S4 N008 3 0 N007 SHUT1
S2 6 N015 0 N007 SHUT1
A2 7 3 0 0 0 0 N007 0 SCHMITT trise=150n tfall=40n vt=-3 vh=10m
D6 1 3 DESD
D7 6 1 DESD
D10 8 1 DIN
D11 6 8 DESD
A1 0 8 0 0 0 0 0 0 OTA g=0 in=2.3p ink=91k
M3 5 N026 6 6 NI temp=27
D3 N026 6 DLIMN
M4 5 N023 3 3 PI temp=27
D12 3 N023 DLIMP
A6 N009 N024 6 6 6 6 N023 6 OTA g=200n ref=-55m linear vlow=-1e308 vhigh=1e308
A7 0 N006 N009 N009 N009 N009 N024 N009 OTA g=22u linear cout=1f Vhigh=1e308 Vlow=-1e308
G5 6 N026 N024 N009 200n
D13 N024 N009 DLIM
S3 N024 N009 0 N007 SHUT2
S5 N023 3 0 N007 SHUT1
S6 6 N026 0 N007 SHUT1
R3 4 N018 1Meg noiseless
A8 N018 2 0 0 0 0 N013 0 OTA g=8m iout=300u en=9.5n enk=18k Rout=1k ref=-6.6m Vlow=-1e308 Vhigh=1e308
G6 N009 N024 0 N013 20µ
G7 N009 N011 0 N013 20µ
D14 N013 0 DCML
C2 3 4 .1p Rpar=1Meg noiseless
C8 4 6 .1p Rpar=1Meg noiseless
C9 3 5 .1p Rpar=1Meg noiseless
C11 5 6 .1p Rpar=1Meg noiseless
C14 N011 4 8f noiseless
C16 5 N024 8f noiseless
R10 3 7 50k noiseless
D2 3 6 DPOWS
S7 6 3 N007 0 SPOWR
A10 0 1 0 0 0 0 0 0 OTA g=0 in=2.3p ink=91k
D1 2 3 DESD
D4 6 2 DESD
D17 7 3 DESD
D18 6 7 DESD
B1 0 N005 I=10u*dnlim(uplim(V(8),V(3)+.3,.1), V(6)-.3, .1)+1n*V(8)
B2 N005 0 I=10u*dnlim(uplim(V(1),V(3)+.31,.1), V(6)-.31, .1)+1n*V(1)
C20 N005 0 .3f Rpar=100K noiseless
G8 0 N009 6 0 .5m
G9 0 N009 3 0 .5m
C21 N009 0 200p Rpar=1K noiseless
R5 4 10 50
C24 10 9 1.25p
R6 9 5 50
C18 10 6 1.25p
C29 9 6 1.25p
C4 3 1 1p Rser=80 Rpar=460k noiseless
C5 8 6 1p Rser=80 Rpar=460k noiseless
C6 1 6 1p Rser=80 Rpar=460k noiseless
D16 8 3 DESD
C1 N008 4 .01f Rser=20Meg noiseless
C22 4 N015 .01f Rser=20Meg noiseless
C23 N023 5 .01f Rser=20Meg noiseless
C25 5 N026 .01f Rser=20Meg noiseless
C12 N015 6 .1f Rser=7Meg noiseless
C15 3 N023 .1f Rser=7Meg noiseless
C19 N026 6 .1f Rser=7Meg noiseless
R9 2 6 37k
R11 3 2 37k
S8 1 3 N007 0 SBIAS
S9 8 3 N007 0 SBIAS
A4 0 N005 0 0 0 0 N006 0 OTA g=125u linear en=1.58n enk=18.5k Vhigh=1e308 Vlow=-1e308
D15 N006 0 DSI temp=27
D19 0 N006 DSI temp=27
C10 N006 0 6.2f noiseless Rser=25.7k Rpar=60k
S10 3 N008 4 3 SUPLIM
S11 3 N023 5 3 SUPLIM
S12 N015 6 6 4 SDWLIM
S13 N026 6 6 5 SDWLIM
C26 N013 0 1.8p Rser=200 noiseless
R4 5 N018 1Meg noiseless
.model DPOWS D(Ron=1k Roff=1G Vfwd=2 epsilon=.1 ilimit=217u noiseless)
.model SPOWR SW(level=1 Ron=100 Roff=1g vt=.5 vh=-.1 ilimit=16.3m noiseless)
.model SBIAS SW(level=2 Ron=10k Roff=1G vt=.5 vh=-.1 ilimit=7u Vser=1.5  noiseless)
.model DIN D(Ron=100 Roff=3.5k Vfwd=1.4 epsilon=.1 Vrev=1.4 epsilon=.1 noiseless)
.model SHUT1 SW(Ron=100k Roff=100G vt=-.8 vh=-100m Vser=300m noiseless)
.model SHUT2 SW(Ron=1k Roff=100G vt=-.8 vh=-100m noiseless)
.model SUPLIM SW(Ron=1k Roff=1G vt=-950m vh=-500m noiseless)
.model SDWLIM SW(Ron=3Meg Roff=1G vt=-400m vh=-50m noiseless)
.model NI VDMOS(Vto=300m kp=30m lambda=.1)
.model PI VDMOS(Vto=-300m Kp=30m lambda=.1 pchan)
.model DLS D(Ron=10k Roff=1G Vfwd=.4 Vrev=.4 epsilon=50m revepsilon=50m noiseless)
.model DLIMN D(Ron=100k Roff=100Meg Vfwd=1.9 Vrev=-300m epsilon=.1  noiseless)
.model DLIMP D(Ron=100k Roff=100Meg Vfwd=1.9 Vrev=-300m  epsilon=10m revepsilon=10m noiseless)
.model DCML D(Ron=10 Roff=1k Vfwd=500m epsilon=10m Vrev=500m revepsilon=10m noiseless)
.model DLIM D(Ron=100 Roff=52k Vfwd=2 Vrev=2 epsilon=100m revepsilon=100m noiseless)
.model DSI D(IS=1e-8 TT=5e-10 noiseless)
.model DESD D(Ron=100 Roff=1G Vfwd=.7 epsilon=.1 noiseless)
.ends LTC6405
*
.subckt LTC6406 1 2 3 4 5 6 7 8 9 10
M1 4 N+ 6 6 NI temp=27
D5 N+ 6 DLIMN
M2 4 P+ 3 3 PI temp=27
D8 3 P+ DLIMP
C3 3 P+ .1f Rser=4Meg noiseless
A3 N008 N010 6 6 6 6 P+ 6 OTA g=200n ref=-55m linear vlow=-1e308 vhigh=1e308
A5 N006 0 N008 N008 N008 N008 N010 N008 OTA g=22u linear cout=1f Vhigh=1e308 Vlow=-1e308
G1 6 N+ N010 N008 200n
D9 N010 N008 DLIM
C7 3 8 1p Rser=80 Rpar=200k noiseless
C13 3 6 1000p
S1 N010 N008 0 N007 SHUT2
C17 6 7 500f
S4 P+ 3 0 N007 SHUT1
S2 6 N+ 0 N007 SHUT1
A2 7 3 0 0 0 0 N007 0 SCHMITT trise=150n tfall=40n vt=-1 vh=10m
D6 1 3 DESD
D7 6 1 DESD
D10 8 1 DIN
D11 6 8 DESD
A1 0 8 0 0 0 0 0 0 OTA g=0 in=2.3p ink=91k
M3 5 N- 6 6 NI temp=27
D3 N- 6 DLIMN
M4 5 P- 3 3 PI temp=27
D12 3 P- DLIMP
A6 N008 N021 6 6 6 6 P- 6 OTA g=200n ref=-55m linear vlow=-1e308 vhigh=1e308
A7 0 N006 N008 N008 N008 N008 N021 N008 OTA g=22u linear cout=1f Vhigh=1e308 Vlow=-1e308
G5 6 N- N021 N008 200n
D13 N021 N008 DLIM
S3 N021 N008 0 N007 SHUT2
S5 P- 3 0 N007 SHUT1
S6 6 N- 0 N007 SHUT1
R3 4 5 2Meg noiseless
G6 N008 N021 0 N012 20µ
G7 N008 N010 0 N012 20µ
D14 N012 0 DCML
C2 3 4 .1p Rpar=1Meg noiseless
C8 4 6 .1p Rpar=1Meg noiseless
C9 3 5 .1p Rpar=1Meg noiseless
C11 5 6 .1p Rpar=1Meg noiseless
C14 N010 4 8f Rser=10k noiseless
C16 5 N021 8f Rser=10k noiseless
R10 3 7 100k noiseless
D2 3 6 DPOWS
S7 6 3 N007 0 SPOWR
A10 0 1 0 0 0 0 0 0 OTA g=0 in=2.4p ink=54k
D1 2 3 DESD
D4 6 2 DESD
D17 7 3 DESD
D18 6 7 DESD
B1 0 N005 I=10u*dnlim(uplim(V(8),V(3)+.3,.1), V(6)-.3, .1)+1n*V(8)
B2 N005 0 I=10u*dnlim(uplim(V(1),V(3)+.31,.1), V(6)-.31, .1)+1n*V(1)
C20 N005 0 .6f Rpar=100K noiseless
G8 0 N008 6 0 .5m
G9 0 N008 3 0 .5m
C21 N008 0 200p Rpar=1K noiseless
R5 4 10 50
C24 10 9 1.25p
R6 9 5 50
C18 10 6 1.25p
C29 9 6 1.25p
C4 3 1 1p Rser=80 Rpar=200k noiseless
C5 8 6 1p Rser=80 Rpar=300k noiseless
C6 1 6 1p Rser=80 Rpar=300k noiseless
D16 8 3 DESD
C1 P+ 4 .01f Rser=20Meg noiseless
C22 4 N+ .01f Rser=20Meg noiseless
C23 P- 5 .01f Rser=20Meg noiseless
C25 5 N- .01f Rser=20Meg noiseless
C12 N+ 6 .1f Rser=4Meg noiseless
C15 3 P- .1f Rser=4Meg noiseless
C19 N- 6 .1f Rser=4Meg noiseless
R9 2 6 30.714k
R11 3 2 43k
S8 1 3 N007 0 SBIAS
S9 8 3 N007 0 SBIAS
A4 0 N005 0 0 0 0 N006 0 OTA g=125u linear en=1.59n enk=8.1k Vhigh=1e308 Vlow=-1e308
D15 N006 0 DSI temp=27
D19 0 N006 DSI temp=27
S10 3 P+ 4 3 SUPLIM
S11 3 P- 5 3 SUPLIM
S12 N+ 6 6 4 SDWLIM
S13 N- 6 6 5 SDWLIM
A8 0 N020 0 0 0 0 N012 0 OTA g=8m iout=300u en=9.5n enk=18k Rout=1k ref=-6.6m Vlow=-1e308 Vhigh=1e308
C26 N012 0 1.8p Rser=200 noiseless
C10 N006 0 11.79f Rser=90k Rpar=60k noiseless
B3 0 N020 I=10u*dnlim(uplim(V(2),V(3)-.9,.1), V(6)+.42, .1)
B4 N020 0 I=5u*(V(4)+V(5))
C27 N020 0 .1f Rpar=100K noiseless
.model DPOWS D(Ron=1k Roff=1G Vfwd=2 epsilon=.1 ilimit=117u noiseless)
.model SPOWR SW(level=1 Ron=100 Roff=1g vt=.5 vh=-.1 ilimit=16.3m noiseless)
.model SBIAS SW(level=2 Ron=10k Roff=1G vt=.5 vh=-.1 ilimit=3u Vser=-.2  noiseless)
.model DIN D(Ron=100 Roff=3k Vfwd=1.4 epsilon=.1 Vrev=1.4 epsilon=.1 noiseless)
.model SHUT1 SW(Ron=100k Roff=100G vt=-.8 vh=-100m Vser=300m noiseless)
.model SHUT2 SW(Ron=1k Roff=100G vt=-.8 vh=-100m noiseless)
.model SUPLIM SW(Ron=1k Roff=1G vt=-720m vh=-50m noiseless)
.model SDWLIM SW(Ron=1Meg Roff=1G vt=-241m vh=-50m noiseless)
.model NI VDMOS(Vto=300m kp=30m lambda=.1)
.model PI VDMOS(Vto=-300m Kp=30m lambda=.1 pchan)
.model DLS D(Ron=10k Roff=1G Vfwd=.4 Vrev=.4 epsilon=50m revepsilon=50m noiseless)
.model DLIMN D(Ron=100k Roff=100Meg Vfwd=1.9 Vrev=-300m epsilon=.1  noiseless)
.model DLIMP D(Ron=100k Roff=100Meg Vfwd=1.9 Vrev=-300m  epsilon=10m revepsilon=10m noiseless)
.model DCML D(Ron=10 Roff=1k Vfwd=500m epsilon=10m Vrev=500m revepsilon=10m noiseless)
.model DLIM D(Ron=100 Roff=52k Vfwd=2 Vrev=2 epsilon=100m revepsilon=100m noiseless)
.model DSI D(IS=2e-8 TT=5e-10 noiseless)
.model DESD D(Ron=100 Roff=1G Vfwd=.7 epsilon=.1 noiseless)
.ends LTC6406
*
.subckt LT1995 1 2 3 4 5 6 7 8 9 10
A1 VINM VINP 0 0 0 0 0 0 OTA g=0 in=.9p ink=90
C2 VINM VINP 1p Rpar=5Meg noiseless
B1 0 N003 I=10u*dnlim(uplim(V(VINP),V(7)-1.4,.1), V(4)+1.6, .1)+1n*V(VINP)
B2 N003 0 I=10u*dnlim(uplim(V(VINM),V(7)-1.39,.1), V(4)+1.59, .1)+1n*V(VINM)
C9 7 VINM 1.5p Rpar=100Meg noiseless
C10 N003 0 7f Rpar=100K noiseless
M1 7 N005 6 6 N temp=27
M2 4 N005 6 6 P temp=27
C3 7 6 1p
D5 N005 6 YU
D6 6 N005 YD
R2 7 N006 42Meg noiseless
R3 N006 4 42Meg noiseless
C13 N006 6 2p Rser=5k noiseless
C4 6 4 1p
C1 VINM 4 1.5p Rpar=100Meg noiseless
C6 7 VINP 1.5p Rpar=100Meg noiseless
C7 VINP 4 1.5p Rpar=100Meg noiseless
A6 0 N003 0 0 0 0 N008 0 OTA g=1u linear Cout=1.3f en=9n enk=110 Vhigh=1e308 Vlow=-1e308
D2 VINM 4 DBIAS
D4 VINP 4 DBIAS
A3 0 N008 0 0 0 0 N006 0 OTA g=534u iout=10m Cout=1.7p Vlow=-1e308 Vhigh=1e308
D1 N008 0 DSlewLim
G1 0 N005 N006 0 1µ
C8 0 N005 1f Rpar=1Meg noiseless
D3 7 4 DC
RM1 VINM 10 4k
RM2 VINM 9 2k
RM4 VINM 8 1k
C11 VINM 9 .5p
RP1 VINP 1 4k
RP2 VINP 2 2k
RP4 VINP 3 1k
C12 VINP 2 .5p
R11 6 VINM 4k
C14 6 VINM .3p
R12 VINP 5 4k
C15 VINP 5 .3p
C5 N006 6 30p Rser=200k noiseless
G2 N006 0 N006 7 100m dir=1 vto=-.814
G3 4 N006 4 N006 100m dir=1 vto=-.814
.model YU D(Ron=100 Roff=1T Vfwd=.805 epsilon=.1 noiseless)
.model YD D(Ron=100 Roff=1T Vfwd=.785 epsilon=.1 noiseless)
.model N VDMOS(Vto=-130m Kp=120m)
.model P VDMOS(Vto=130m Kp=120m pchan)
.model DBIAS D(Ron=1Meg Roff=1G Vfwd=.6 ilimit=80n noiseless)
.model DSlewLim D(Ron=550k Roff=1Meg Vfwd=1 Vrev=1 epsilon=.1 revepsilon=.1 noiseless)
.model DC D(Ron=2k Roff=1G Vfwd=1 epsilon=.1 ilimit=2.99m noiseless)
.ends LT1995
*
.subckt LTC6087 1 2 3 4 5 6
B1 0 N004 I=10u*dnlim(uplim(V(1),V(3)+.2,.1), V(4)-.2, .1)+1n*V(1)-34.37p
B2 N004 0 I=10u*dnlim(uplim(V(2),V(3)+.21,.1), V(4)-.21, .1)+1n*V(2)
C10 N004 0 1f Rpar=100K noiseless
M1 5 N012 4 4 NI temp=27
C2 3 5 1p Rpar=100Meg noiseless
D5 N012 4 DLIMN
M2 5 N008 3 3 PI temp=27
D8 3 N008 DLIMP
C3 3 N008 50p Rser=4Meg noiseless
A3 N009 N010 4 4 4 4 N008 4 OTA g=200n ref=-37m linear vlow=-1e308 vhigh=1e308
C11 5 4 1p Rpar=100Meg noiseless
C12 N012 4 50p Rser=4Meg noiseless
A4 0 N004 0 0 0 0 N006 0 OTA g=1m linear en=9.6n enk=768 Vhigh=130m Vlow=-130m
C16 N010 5 650f
A5 N007 0 N009 N009 N009 N009 N010 N009 OTA g=68u iout=5u Vhigh=1e308 Vlow=-1e308
G1 4 N012 N010 N009 200n
D9 N010 N009 DLIM
C7 3 1 2.1p Rser=1k Rpar=5T noiseless
C13 3 4 1000p
S1 N010 N009 0 N005 SHUT2
C1 N006 0 120p Rpar=1k noiseless
C17 4 6 500f Rpar=1T noiseless
G2 0 N009 4 0 .5m
G4 0 N009 3 0 .5m
C18 N009 0 200p Rpar=1K noiseless
S4 N008 3 0 N005 SHUT1
S2 4 N012 0 N005 SHUT1
S7 3 4 N005 0 SPOW
G3 0 N007 N006 0 1m
L1 N007 0 59.4µ Cpar=159f Rser=1.12k Rpar=9.33k noiseless
A2 6 4 0 0 0 0 N005 0 SCHMITT trise=5u tfall=1u vt=.8 vh=10m
D2 3 6 DSHUT
D4 1 4 DBIAS
D6 2 3 DESD
D7 4 2 DESD
D10 1 3 DESD
D11 4 1 DESD
D1 2 4 DBIAS
C8 N008 5 1f Rser=1Meg noiseless
C9 5 N012 1f Rser=1Meg noiseless
C4 3 2 2.1p Rser=1k Rpar=5T noiseless
C5 1 4 2.1p Rser=1k Rpar=5T noiseless
C6 2 4 2.1p Rser=1k Rpar=5T noiseless
A6 2 0 0 0 0 0 0 0 OTA IN=.39f*table(freq,0,.5,1,.5, 10,1.5,100,4.9,500,11,1000,15.9,3000,28.9,10000 ,60.8,20000,99.9,30000,137.3,40000,174.2,50000,210.7,100000, 392, 500k,1.6e3,1e6,1.6e3)
A7 2 1 0 0 0 0 0 0 OTA INCM=.919f*table(freq,0,.5,1,.5, 10,1.5,100,4.9,500,11,1000,15.9,3000,28.9,10000 ,60.8,20000,99.9,30000,137.3,40000,174.2,50000,210.7,100000, 392, 500k,1.6e3,1e6,1.6e3)
A1 1 0 0 0 0 0 0 0 OTA IN=.39f*table(freq,0,.5,1,.5, 10,1.5,100,4.9,500,11,1000,15.9,3000,28.9,10000 ,60.8,20000,99.9,30000,137.3,40000,174.2,50000,210.7,100000, 392, 500k,1.6e3,1e6,1.6e3)
.model SHUT1 SW(Ron=100k Roff=100G vt=-.8 vh=-100m Vser=300m noiseless)
.model SHUT2 SW(Ron=1k Roff=100G vt=-.8 vh=-100m noiseless)
.model NI VDMOS(Vto=300m kp=40m lambda=.01)
.model PI VDMOS(Vto=-300m Kp=40m lambda=.01 pchan)
.model DLIM D(Ron=10k Roff=70Meg Vfwd=2 Vrev=2 epsilon=10m revepsilon=10m noiseless)
.model DESD D(Ron=10 Roff=10T Vfwd=.7 epsilon=.1 noiseless)
.model DLIMN D(Ron=100k Roff=100Meg Vfwd=1.8 Vrev=-300m epsilon=.1  noiseless)
.model DLIMP D(Ron=100k Roff=100Meg Vfwd=1.8 Vrev=-300m  epsilon=10m revepsilon=10m noiseless)
.model DSHUT D(Ron=85k Roff=1Meg Vfwd=.1 epsilon=50m ilimit=.1u  noiseless)
.model DBIAS D(Ron=10G Roff=10T epsilon=.3 ilimit=1p noiseless)
.model SPOW SW(level=2 Ron=400 Roff=1G vt=.5 vh=-.1 ilimit=.948m noiseless)
.ends LTC6087
*
.subckt LTC6088 1 2 3 4 5
B1 0 N004 I=10u*dnlim(uplim(V(1),V(3)+.2,.1), V(4)-.2, .1)+1n*V(1)-34.37p
B2 N004 0 I=10u*dnlim(uplim(V(2),V(3)+.21,.1), V(4)-.21, .1)+1n*V(2)
C10 N004 0 1f Rpar=100K noiseless
M1 5 N011 4 4 NI temp=27
C2 3 5 1p Rpar=100Meg noiseless
D5 N011 4 DLIMN
M2 5 N007 3 3 PI temp=27
D8 3 N007 DLIMP
C3 3 N007 50p Rser=4Meg noiseless
A3 N008 N009 4 4 4 4 N007 4 OTA g=200n ref=-37m linear vlow=-1e308 vhigh=1e308
C11 5 4 1p Rpar=100Meg noiseless
C12 N011 4 50p Rser=4Meg noiseless
A4 0 N004 0 0 0 0 N005 0 OTA g=1m linear en=9.6n enk=768 Vhigh=130m Vlow=-130m
C16 N009 5 650f
A5 N006 0 N008 N008 N008 N008 N009 N008 OTA g=68u iout=5u Vhigh=1e308 Vlow=-1e308
G1 4 N011 N009 N008 200n
D9 N009 N008 DLIM
C7 3 1 2.1p Rser=1k Rpar=5T noiseless
C13 3 4 1000p
C1 N005 0 120p Rpar=1k noiseless
G2 0 N008 4 0 .5m
G4 0 N008 3 0 .5m
C18 N008 0 200p Rpar=1K noiseless
G3 0 N006 N005 0 1m
L1 N006 0 59.4µ Cpar=159f Rser=1.12k Rpar=9.33k noiseless
D4 1 4 DBIAS
D6 2 3 DESD
D7 4 2 DESD
D10 1 3 DESD
D11 4 1 DESD
A1 2 1 0 0 0 0 0 0 OTA g=0 in=-4.1684p+4.17p*exp(freq*9e-7)
D1 2 4 DBIAS
C8 N007 5 1f Rser=1Meg noiseless
C9 5 N011 1f Rser=1Meg noiseless
C4 3 2 2.1p Rser=1k Rpar=5T noiseless
C5 1 4 2.1p Rser=1k Rpar=5T noiseless
C6 2 4 2.1p Rser=1k Rpar=5T noiseless
D3 3 4 DPOW
.model DSHUT D(Ron=85k Roff=1Meg Vfwd=.1 epsilon=50m ilimit=.1u  noiseless)
.model DBIAS D(Ron=10G Roff=10T epsilon=.3 ilimit=1p noiseless)
.model DPOW D(Ron=100 Roff=1G Vfwd=.6 epsilon=.1 ilimit=.948m noiseless)
.model SHUT1 SW(Ron=100k Roff=100G vt=-.8 vh=-100m Vser=300m noiseless)
.model SHUT2 SW(Ron=1k Roff=100G vt=-.8 vh=-100m noiseless)
.model NI VDMOS(Vto=300m kp=40m lambda=.01)
.model PI VDMOS(Vto=-300m Kp=40m lambda=.01 pchan)
.model DLIM D(Ron=10k Roff=70Meg Vfwd=2 Vrev=2 epsilon=10m revepsilon=10m noiseless)
.model DESD D(Ron=10 Roff=10T Vfwd=.7 epsilon=.1 noiseless)
.model DLIMN D(Ron=100k Roff=100Meg Vfwd=1.8 Vrev=-300m epsilon=.1  noiseless)
.model DLIMP D(Ron=100k Roff=100Meg Vfwd=1.8 Vrev=-300m  epsilon=10m revepsilon=10m noiseless)
.ends LTC6088
*
.subckt LTC6246 1 2 3 4 5 6
B1 0 N004 I=10u*dnlim(uplim(V(3),V(6)+.51,.1), V(2)-.61, .1)+1n*V(3)
B2 N004 0 I=10u*dnlim(uplim(V(4),V(6)+.5,.1), V(2)-.6, .1)+1n*V(4)
C10 N004 0 .1f Rpar=100K noiseless
Q1 N014 N014 N013 0 PNP1 temp=27
R3 6 N013 2.2K noiseless
R4 N015 N014 160 noiseless
Q2 1 N015 6 0 PNP2 M=3.5 temp=27
Q3 N016 N016 N018 0 NPN1 temp=27
Q4 1 N017 2 0 NPN2 M=3.5 temp=27
C3 1 N014 700f Rser=1.8k noiseless
C15 1 N016 700f Rser=1.8k noiseless
B3 N014 2 I=uplim(dnlim(-430u*V(VFOLDP),0,92u),1m,.1m)*(.5+.5*tanh((V(ON)-.5)/100m))