Version 4
SHEET 1 880 680
WIRE 304 -64 96 -64
WIRE 304 -32 304 -64
WIRE 96 32 96 -64
WIRE 272 64 224 64
WIRE 304 64 304 48
WIRE 304 64 272 64
WIRE 304 80 304 64
WIRE 96 128 96 112
WIRE 224 128 224 64
WIRE 240 128 224 128
WIRE 304 208 304 192
FLAG 96 128 0
FLAG 304 208 0
FLAG 272 64 A
SYMBOL res 288 -48 R0
SYMATTR InstName R1
SYMATTR Value 10k
SYMBOL voltage 96 16 R0
WINDOW 123 0 0 Left 0
WINDOW 39 0 0 Left 0
SYMATTR InstName V1
SYMATTR Value 10
SYMBOL MyPot 288 96 R0
WINDOW 39 61 47 Center 1
SYMATTR InstName X1
SYMATTR SpiceLine R=10k Val=66
TEXT 64 232 Left 2 !.op
