Version 4
SHEET 1 880 680
WIRE 80 160 -48 160
WIRE 304 160 240 160
WIRE 304 176 304 160
WIRE -48 192 -48 160
WIRE 160 240 160 224
WIRE 304 272 304 256
WIRE -48 288 -48 272
FLAG -48 288 0
FLAG 160 240 0
FLAG 304 272 0
FLAG 304 160 OUT
SYMBOL pwm 160 160 R0
SYMATTR Value f=1k Range=5
SYMATTR InstName U1
SYMBOL voltage -48 176 R0
WINDOW 3 24 44 Left 2
WINDOW 123 0 0 Left 0
WINDOW 39 0 0 Left 0
SYMATTR Value PULSE(0 5 0 10m 10m 0 20m 5)
SYMATTR InstName V1
SYMBOL res 288 160 R0
SYMATTR InstName R1
SYMATTR Value 1k
TEXT -80 312 Left 2 !.tran 100m
