Version 4
SHEET 1 880 680
WIRE 256 32 208 32
WIRE 352 32 336 32
WIRE 480 32 432 32
WIRE 208 96 208 32
WIRE 480 112 480 32
WIRE -64 176 -208 176
WIRE 160 176 96 176
WIRE -208 224 -208 176
WIRE 208 224 208 192
WIRE 480 224 480 192
WIRE 16 272 16 240
WIRE -208 336 -208 304
FLAG 16 272 0
FLAG -208 336 0
FLAG 208 224 0
FLAG 480 224 0
SYMBOL Misc\\NIGBT 160 96 R0
SYMATTR InstName Z1
SYMBOL pwm 16 176 R0
SYMATTR Value f=15k Range=5
SYMATTR InstName U1
SYMBOL voltage -208 208 R0
WINDOW 3 12 97 Left 2
WINDOW 123 0 0 Left 0
WINDOW 39 0 0 Left 0
SYMATTR InstName V1
SYMATTR Value PULSE(0 5 0 4.16m 4.16m 0 8.32m 2)
SYMBOL voltage 480 96 R0
WINDOW 123 0 0 Left 0
WINDOW 39 0 0 Left 0
SYMATTR InstName V2
SYMATTR Value 100
SYMBOL res 352 16 R90
WINDOW 0 0 56 VBottom 2
WINDOW 3 32 56 VTop 2
SYMATTR InstName R1
SYMATTR Value 0.1m
SYMBOL ind 336 48 R270
WINDOW 0 32 56 VTop 2
WINDOW 3 5 56 VBottom 2
SYMATTR InstName L1
SYMATTR Value 10m
TEXT -242 360 Left 2 !.tran 20m
TEXT 224 200 Left 2 !.model NIGBT NIGBT
