Version 4
SHEET 1 1152 744
WIRE -160 -144 -160 -160
WIRE -640 -80 -640 -96
WIRE -416 -80 -416 -96
WIRE -160 -32 -160 -64
WIRE -144 -32 -160 -32
WIRE 80 -32 48 -32
WIRE 96 -32 80 -32
WIRE 192 -32 176 -32
WIRE 320 -32 320 -48
WIRE -640 16 -640 0
WIRE -416 16 -416 0
WIRE -144 64 -160 64
WIRE 64 64 48 64
WIRE 80 80 80 -32
WIRE 112 80 80 80
WIRE 320 80 320 48
WIRE 320 80 272 80
WIRE 464 96 464 -32
WIRE 688 96 688 -32
WIRE -464 128 -592 128
WIRE -352 128 -464 128
WIRE -304 128 -352 128
WIRE -208 128 -240 128
WIRE -112 128 -144 128
WIRE -592 144 -592 128
WIRE -464 144 -464 128
WIRE 64 160 64 64
WIRE 112 160 64 160
WIRE 416 160 272 160
WIRE 640 160 608 160
WIRE 64 192 64 160
WIRE 464 192 464 160
WIRE 688 192 688 160
WIRE 688 192 464 192
WIRE -352 208 -352 128
WIRE -592 224 -592 208
WIRE -592 224 -624 224
WIRE -304 224 -304 208
WIRE -240 224 -240 128
WIRE -240 224 -304 224
WIRE -208 224 -208 208
WIRE -144 224 -144 128
WIRE -144 224 -208 224
WIRE -112 224 -112 208
WIRE -48 224 -112 224
WIRE 464 224 464 192
WIRE -464 240 -464 208
WIRE -464 240 -496 240
WIRE -592 256 -592 224
WIRE -496 256 -496 240
WIRE -464 256 -464 240
WIRE -112 256 -112 224
WIRE 320 288 320 272
WIRE -592 336 -592 320
WIRE -464 336 -464 320
WIRE -464 336 -592 336
WIRE -352 336 -352 272
WIRE -352 336 -464 336
WIRE -112 336 -112 320
WIRE -112 336 -352 336
WIRE -48 336 -112 336
WIRE 464 336 464 304
WIRE -464 384 -592 384
WIRE -352 384 -464 384
WIRE -304 384 -352 384
WIRE -208 384 -240 384
WIRE -112 384 -144 384
WIRE -592 400 -592 384
WIRE -464 400 -464 384
WIRE 48 400 48 368
WIRE 112 400 48 400
WIRE 320 400 320 368
WIRE 320 400 272 400
WIRE 48 416 48 400
WIRE -352 464 -352 384
WIRE -592 480 -592 464
WIRE -592 480 -624 480
WIRE -304 480 -304 464
WIRE -240 480 -240 384
WIRE -240 480 -304 480
WIRE -208 480 -208 464
WIRE -144 480 -144 384
WIRE -144 480 -208 480
WIRE -112 480 -112 464
WIRE -48 480 -112 480
WIRE 112 480 48 480
WIRE 336 480 272 480
WIRE -464 496 -464 464
WIRE -464 496 -496 496
WIRE -592 512 -592 480
WIRE -496 512 -496 496
WIRE -464 512 -464 496
WIRE -112 512 -112 480
WIRE 48 528 48 480
WIRE -592 592 -592 576
WIRE -464 592 -464 576
WIRE -464 592 -592 592
WIRE -352 592 -352 528
WIRE -352 592 -464 592
WIRE -112 592 -112 576
WIRE -112 592 -352 592
WIRE -48 592 -112 592
WIRE 48 624 48 608
FLAG -640 16 0
FLAG 464 336 0
FLAG -496 256 0
FLAG -416 16 0
FLAG -640 -96 AC-P
IOPIN -640 -96 Out
FLAG -416 -96 AC-A
IOPIN -416 -96 Out
FLAG 320 -48 AC-P
IOPIN 320 -48 In
FLAG -624 224 AC-P
IOPIN -624 224 In
FLAG 464 -32 AC-P
IOPIN 464 -32 In
FLAG 688 -32 AC-A
IOPIN 688 -32 In
FLAG 608 160 GT-A
IOPIN 608 160 In
FLAG -496 512 0
FLAG -624 480 AC-A
IOPIN -624 480 In
FLAG 320 272 AC-A
IOPIN 320 272 In
FLAG 336 480 GT-A
IOPIN 336 480 In
FLAG -48 224 P+
IOPIN -48 224 Out
FLAG -48 336 P-
IOPIN -48 336 Out
FLAG -48 480 A+
IOPIN -48 480 Out
FLAG -48 592 A-
IOPIN -48 592 Out
FLAG 48 368 A+
IOPIN 48 368 In
FLAG 48 624 A-
IOPIN 48 624 In
FLAG 192 -32 P+
IOPIN 192 -32 In
FLAG -160 64 A-
IOPIN -160 64 In
FLAG -160 -160 A+
IOPIN -160 -160 In
FLAG 64 192 P-
IOPIN 64 192 In
SYMBOL voltage -640 -96 R0
WINDOW 123 0 0 Left 0
WINDOW 39 0 0 Left 0
WINDOW 3 6 96 Left 2
SYMATTR Value SINE(0 220 60)
SYMATTR InstName VP
SYMBOL res 304 -48 R0
SYMATTR InstName R1
SYMATTR Value 360R
SYMBOL res 448 208 R0
SYMATTR InstName RLoad
SYMATTR Value 220R
SYMBOL Optos\\Led_Triac_Zcs 160 96 R0
SYMATTR InstName U1
SYMBOL Misc\\TRIAC 432 96 R0
WINDOW 0 -10 20 VRight 2
WINDOW 3 78 -15 VRight 2
SYMATTR InstName U3
SYMATTR Value Q4012LH2
SYMBOL diode -608 320 M180
WINDOW 0 24 64 Left 2
WINDOW 3 24 0 Left 2
SYMATTR InstName D1
SYMATTR Value 1SR154-400
SYMBOL zener -96 320 R180
WINDOW 0 24 64 Left 2
WINDOW 3 24 0 Left 2
SYMATTR InstName D2
SYMATTR Value BZX84C6V2L
SYMBOL diode -480 320 M180
WINDOW 0 24 64 Left 2
WINDOW 3 24 0 Left 2
SYMATTR InstName D3
SYMATTR Value 1SR154-400
SYMBOL diode -608 208 M180
WINDOW 0 24 64 Left 2
WINDOW 3 24 0 Left 2
SYMATTR InstName D4
SYMATTR Value 1SR154-400
SYMBOL diode -480 208 M180
WINDOW 0 24 64 Left 2
WINDOW 3 24 0 Left 2
SYMATTR InstName D5
SYMATTR Value 1SR154-400
SYMBOL polcap -368 208 R0
WINDOW 3 24 56 Left 2
SYMATTR Value 1000µ
SYMATTR InstName C1
SYMATTR Description Capacitor
SYMATTR Type cap
SYMATTR SpiceLine V=400 Irms=1.33 Rser=0.047 Lser=0
SYMBOL res -320 112 R0
SYMATTR InstName R4
SYMATTR Value 2k
SYMBOL res -224 112 R0
SYMATTR InstName R5
SYMATTR Value 2k
SYMBOL res -128 112 R0
SYMATTR InstName R6
SYMATTR Value 2k
SYMBOL voltage -416 -96 R0
WINDOW 123 0 0 Left 0
WINDOW 39 0 0 Left 0
WINDOW 3 7 97 Left 2
SYMATTR Value SINE(0 220 60 50m 0 180)
SYMATTR InstName VA
SYMBOL Misc\\TRIAC 656 96 R0
WINDOW 0 -10 20 VRight 2
WINDOW 3 78 -11 VRight 2
SYMATTR InstName U2
SYMATTR Value Q4012LH2
SYMBOL diode -608 576 M180
WINDOW 0 24 64 Left 2
WINDOW 3 24 0 Left 2
SYMATTR InstName D6
SYMATTR Value 1SR154-400
SYMBOL zener -96 576 R180
WINDOW 0 24 64 Left 2
WINDOW 3 24 0 Left 2
SYMATTR InstName D7
SYMATTR Value BZX84C6V2L
SYMBOL diode -480 576 M180
WINDOW 0 24 64 Left 2
WINDOW 3 24 0 Left 2
SYMATTR InstName D8
SYMATTR Value 1SR154-400
SYMBOL diode -608 464 M180
WINDOW 0 24 64 Left 2
WINDOW 3 24 0 Left 2
SYMATTR InstName D9
SYMATTR Value 1SR154-400
SYMBOL diode -480 464 M180
WINDOW 0 24 64 Left 2
WINDOW 3 24 0 Left 2
SYMATTR InstName D10
SYMATTR Value 1SR154-400
SYMBOL polcap -368 464 R0
WINDOW 3 24 56 Left 2
SYMATTR Value 1000µ
SYMATTR InstName C2
SYMATTR Description Capacitor
SYMATTR Type cap
SYMATTR SpiceLine V=400 Irms=1.33 Rser=0.047 Lser=0
SYMBOL res -320 368 R0
SYMATTR InstName R8
SYMATTR Value 2k
SYMBOL res -224 368 R0
SYMATTR InstName R9
SYMATTR Value 2k
SYMBOL res -128 368 R0
SYMATTR InstName R10
SYMATTR Value 2k
SYMBOL res 304 272 R0
SYMATTR InstName R11
SYMATTR Value 360R
SYMBOL Optos\\Led_Triac_Zcs 160 416 R0
SYMATTR InstName U4
SYMBOL res 32 512 R0
SYMATTR InstName R14
SYMATTR Value 300R
SYMBOL Optos\\PC817A -48 16 R0
WINDOW 0 -79 77 Center 2
WINDOW 3 -1 78 Center 2
SYMATTR InstName U5
SYMBOL res -144 -48 R180
WINDOW 0 36 76 Left 2
WINDOW 3 36 40 Left 2
SYMATTR InstName R2
SYMATTR Value 300R
SYMBOL res 80 -16 R270
WINDOW 0 32 56 VTop 2
WINDOW 3 0 56 VBottom 2
SYMATTR InstName R3
SYMATTR Value 300R
SYMBOL polcap 32 416 R0
WINDOW 3 24 56 Left 2
SYMATTR InstName C3
SYMATTR Value 10µ
SYMATTR Description Capacitor
SYMATTR Type cap
SYMATTR SpiceLine V=25 Irms=39m Rser=2.8 Lser=0 mfg="Nichicon" pn="UPR1E100MAH" type="Al electrolytic"
TEXT -744 672 Left 2 !.tran 150m
TEXT -744 696 Left 2 !.lib Others\\Q4012LH2.sub
