Version 4
SHEET 1 880 680
WIRE 208 -32 0 -32
WIRE 368 -32 208 -32
WIRE 208 -16 208 -32
WIRE 208 0 208 -16
WIRE 0 32 0 -32
WIRE 208 96 208 80
WIRE 368 96 368 -32
WIRE 208 112 208 96
WIRE 0 176 0 112
WIRE 64 176 0 176
WIRE 160 176 128 176
WIRE 0 224 0 176
WIRE 0 336 0 288
WIRE 208 336 208 176
WIRE 208 336 0 336
WIRE 368 336 368 176
WIRE 368 336 208 336
WIRE 208 352 208 336
FLAG 208 352 0
FLAG 208 -16 A
FLAG 208 96 B
SYMBOL Misc\\TRIAC 176 112 R0
SYMATTR InstName U1
SYMBOL Misc\\DIAC 64 208 R270
WINDOW 0 64 32 VTop 2
WINDOW 3 0 32 VBottom 2
SYMATTR InstName U2
SYMBOL voltage 368 80 R0
WINDOW 3 24 96 Left 1
WINDOW 123 0 0 Left 0
WINDOW 39 0 0 Left 0
SYMATTR InstName V1
SYMATTR Value SINE(0 {220*sqrt(2)} 60 0 0 0)
SYMBOL res -16 16 R0
SYMATTR InstName R1
SYMATTR Value 750k
SYMBOL cap -16 224 R0
SYMATTR InstName C1
SYMATTR Value 68n
SYMBOL res 192 -16 R0
SYMATTR InstName RLoad
SYMATTR Value 220R
TEXT 240 392 Left 1 !.subckt TRIAC MT2 G MT1\n.param R=10K\nQ1 N001 G MT1 0 NP\nQ2 N001 N002 MT2 0 NP\nQ3 N002 N001 MT1 0 PN\nQ4 G N001 MT2 0 PN\nR1 MT2 N002 {R}\nR2 G MT1 {R}\n.model PN NPN Cjc=10p Cje=10p\n.model NP PNP Cjc=10p Cje=10p\n.ends TRIAC
TEXT -40 392 Left 1 !.subckt DIAC T1 T2\n* default parameters\n.param RS=10 ; series resistance\n.param VK=20 ; breakdown voltage\nQ1 N002 N001 T2 0 PN\nQ2 N001 N002 N005 0 NP\nR1 N002 N004 {20K*(VK-1)}\nR2 N004 T2 9.5K\nR3 N002 N005 9.5K\nQ3 N004 N003 N005 0 PN\nQ4 N003 N004 T2 0 NP\nR4 T1 N005 {RS}\n.model PN NPN Cjc=10p Cje=10p\n.model NP PNP Cjc=10p Cje=10p\n.ends DIAC
TEXT 414 346 Left 2 !.tran 50m
