Version 4
SHEET 1 1152 680
WIRE 400 16 336 16
WIRE 608 16 480 16
WIRE 752 16 608 16
WIRE 608 32 608 16
WIRE 752 64 752 16
WIRE 160 80 -128 80
WIRE 336 80 336 16
WIRE 336 80 320 80
WIRE 608 144 608 112
WIRE 160 160 -128 160
WIRE 336 160 320 160
WIRE -128 192 -128 160
WIRE 752 192 752 144
WIRE 336 208 336 160
WIRE 432 208 336 208
WIRE 560 208 432 208
WIRE 432 256 432 208
WIRE 464 256 432 256
WIRE 608 256 608 208
WIRE 608 256 544 256
WIRE 608 288 608 256
FLAG 752 192 0
FLAG -128 192 0
FLAG 608 288 0
SYMBOL voltage 752 48 R0
WINDOW 123 0 0 Left 0
WINDOW 39 0 0 Left 0
SYMATTR InstName V1
SYMATTR Value SINE(0 220 60)
SYMBOL res 496 0 R90
WINDOW 0 0 56 VBottom 2
WINDOW 3 32 56 VTop 2
SYMATTR InstName R1
SYMATTR Value 360R
SYMBOL res 560 240 R90
WINDOW 0 0 56 VBottom 2
WINDOW 3 32 56 VTop 2
SYMATTR InstName R2
SYMATTR Value 330R
SYMBOL res 592 16 R0
SYMATTR InstName RLoad
SYMATTR Value 220R
SYMBOL voltage -128 64 R0
WINDOW 0 39 57 Left 2
WINDOW 123 0 0 Left 0
WINDOW 39 0 0 Left 0
WINDOW 3 32 81 Left 2
SYMATTR InstName V2
SYMATTR Value PULSE(0 5 35m 0 0 25m 40m)
SYMBOL Optos\\Led_Triac_Zcs 208 96 R0
SYMATTR InstName U1
SYMBOL Misc\\TRIAC 576 144 R0
WINDOW 0 77 21 VRight 2
WINDOW 3 98 -11 VRight 2
SYMATTR InstName U3
SYMATTR Value Q4012LH2
TEXT -208 400 Left 2 !.tran 150m startup
TEXT -208 424 Left 2 !.lib Others\\Q4012LH2.sub
