Version 4
SHEET 1 880 680
WIRE 80 80 16 80
WIRE 112 80 80 80
WIRE 240 80 192 80
WIRE 288 80 240 80
WIRE 16 96 16 80
WIRE 288 96 288 80
WIRE 192 144 160 144
WIRE 240 144 192 144
WIRE 160 176 160 144
WIRE 16 192 16 176
WIRE 288 208 288 192
WIRE 160 272 160 256
FLAG 16 192 0
FLAG 288 208 0
FLAG 160 272 0
FLAG 80 80 A
FLAG 240 80 B
FLAG 192 144 C
SYMBOL Variable_Resistor 288 144 R0
SYMATTR InstName X1
SYMBOL voltage 16 80 R0
WINDOW 123 0 0 Left 0
WINDOW 39 0 0 Left 0
SYMATTR InstName V1
SYMATTR Value 10
SYMBOL voltage 160 160 R0
WINDOW 123 0 0 Left 0
WINDOW 39 0 0 Left 0
SYMATTR InstName V2
SYMATTR Value 10
SYMBOL res 208 64 R90
WINDOW 0 0 56 VBottom 2
WINDOW 3 32 56 VTop 2
SYMATTR InstName R1
SYMATTR Value 10
TEXT -18 292 Left 2 !.op
